<?xml version="1.0" encoding="UTF-8"?>

<!-- generated on 2023-12-05 14:11:59 by Eclipse SUMO sumo Version 1.19.0
<configuration xmlns:xsi="http://www.w3.org/2001/XMLSchema-instance" xsi:noNamespaceSchemaLocation="http://sumo.dlr.de/xsd/sumoConfiguration.xsd">

    <input>
        <net-file value="cross.net.xml"/>
        <route-files value="cross1.rou.xml"/>
        <additional-files value="default_logic.add.xml,detectors.add.xml"/>
    </input>

    <output>
        <tripinfo-output value="live_stats.xml"/>
        <tripinfo-output.write-unfinished value="false"/>
    </output>

    <time>
        <begin value="0"/>
    </time>

    <report>
        <verbose value="false"/>
        <no-warnings value="true"/>
        <duration-log.statistics value="true"/>
        <no-step-log value="true"/>
    </report>

    <traci_server>
        <remote-port value="52393"/>
    </traci_server>

    <random_number>
        <random value="false"/>
    </random_number>

</configuration>
-->

<snapshot xmlns:xsi="http://www.w3.org/2001/XMLSchema-instance" xsi:noNamespaceSchemaLocation="http://sumo.dlr.de/xsd/state_file.xsd" version="1.19.0" time="0.00" type="micro">
    <route id="r_0" state="1" edges="54o 4i 3o 53i"/>
    <route id="r_1" state="1" edges="53o 3i 4o 54i"/>
    <route id="r_2" state="1" edges="51o 1i 2o 52i"/>
    <route id="r_3" state="1" edges="52o 2i 1o 51i"/>
    <delay number="0" begin="0" end="0" depart="0.00" time="0.00"/>
    <vType id="car" length="5.00" minGap="2.50" maxSpeed="16.67" guiShape="passenger" accel="0.8" decel="4.5" sigma="0.5"/>
    <flowState id="f_0" type="car" begin="0.00" number="10" probability="0.20" route="r_0" done="0" index="0"/>
    <flowState id="f_1" type="car" begin="0.00" number="10" probability="0.20" route="r_1" done="0" index="0"/>
    <flowState id="f_2" type="car" begin="0.00" number="10" probability="0.20" route="r_2" done="0" index="0"/>
    <flowState id="f_3" type="car" begin="0.00" number="10" probability="0.20" route="r_3" done="0" index="0"/>
    <tlLogic id="0" programID="0" phase="0" duration="0"/>
    <tlLogic id="0" programID="default_4_lane" phase="0" duration="0"/>
</snapshot>
