<?xml version="1.0" encoding="UTF-8"?>

<!-- generated on 2024-01-22 12:14:19 by Eclipse SUMO netedit Version 1.19.0
-->

<additional xmlns:xsi="http://www.w3.org/2001/XMLSchema-instance" xsi:noNamespaceSchemaLocation="http://sumo.dlr.de/xsd/additional_file.xsd">
    <!-- Detectors -->
    <inductionLoop id="e1_0" lane="-E1_0" pos="88.67" period="10.00" file="cbd.out"/>
    <inductionLoop id="e1_1" lane="-E0_0" pos="108.07" period="10.00" file="cbd.out"/>
    <inductionLoop id="e1_10" lane="296383691#15_0" pos="93.73" period="10.00" file="cbd.out"/>
    <inductionLoop id="e1_11" lane="296383691#15_1" pos="93.67" period="10.00" file="cbd.out"/>
    <inductionLoop id="e1_12" lane="191505321#6_0" pos="15.90" period="10.00" file="cbd.out"/>
    <inductionLoop id="e1_13" lane="734406094#7_1" pos="10.76" period="10.00" file="cbd.out"/>
    <inductionLoop id="e1_14" lane="734406094#7_0" pos="10.74" period="10.00" file="cbd.out"/>
    <inductionLoop id="e1_15" lane="296383691#12_0" pos="78.49" period="10.00" file="cbd.out"/>
    <inductionLoop id="e1_16" lane="296383691#12_1" pos="78.46" period="10.00" file="cbd.out"/>
    <inductionLoop id="e1_17" lane="715211394#15_0" pos="33.72" period="10.00" file="cbd.out"/>
    <inductionLoop id="e1_18" lane="1126800685#2_0" pos="93.72" period="10.00" file="cbd.out"/>
    <inductionLoop id="e1_19" lane="-E7_0" pos="120.42" period="10.00" file="cbd.out"/>
    <inductionLoop id="e1_2" lane="715611140#2_0" pos="38.98" period="10.00" file="cbd.out"/>
    <inductionLoop id="e1_20" lane="-E8_0" pos="64.32" period="10.00" file="cbd.out"/>
    <inductionLoop id="e1_21" lane="-E6_0" pos="111.48" period="10.00" file="cbd.out"/>
    <inductionLoop id="e1_22" lane="1126800685#5_0" pos="77.90" period="10.00" file="cbd.out"/>
    <inductionLoop id="e1_23" lane="198005098#4_0" pos="67.83" period="10.00" file="cbd.out"/>
    <inductionLoop id="e1_24" lane="198005098#4_1" pos="67.99" period="10.00" file="cbd.out"/>
    <inductionLoop id="e1_25" lane="-E5_0" pos="92.34" period="10.00" file="cbd.out"/>
    <inductionLoop id="e1_26" lane="-E3_0" pos="110.56" period="10.00" file="cbd.out"/>
    <inductionLoop id="e1_27" lane="-E4_0" pos="133.59" period="10.00" file="cbd.out"/>
    <inductionLoop id="e1_28" lane="581959650#4_1" pos="90.09" period="10.00" file="cbd.out"/>
    <inductionLoop id="e1_29" lane="581959650#4_0" pos="89.92" period="10.00" file="cbd.out"/>
    <inductionLoop id="e1_3" lane="-E2_0" pos="99.46" period="10.00" file="cbd.out"/>
    <inductionLoop id="e1_30" lane="-E11_0" pos="129.06" period="10.00" file="cbd.out"/>
    <inductionLoop id="e1_31" lane="-E10_0" pos="179.12" period="10.00" file="cbd.out"/>
    <inductionLoop id="e1_32" lane="-E9_0" pos="148.70" period="10.00" file="cbd.out"/>
    <inductionLoop id="e1_4" lane="5095075#2_0" pos="62.52" period="10.00" file="cbd.out"/>
    <inductionLoop id="e1_5" lane="5095075#2_1" pos="62.37" period="10.00" file="cbd.out"/>
    <inductionLoop id="e1_6" lane="1127383196#6_0" pos="48.97" period="10.00" file="cbd.out"/>
    <inductionLoop id="e1_7" lane="191505321#2_0" pos="39.27" period="10.00" file="cbd.out"/>
    <inductionLoop id="e1_8" lane="505256328#4_0" pos="58.47" period="10.00" file="cbd.out"/>
    <inductionLoop id="e1_9" lane="505256328#4_1" pos="58.39" period="10.00" file="cbd.out"/>
</additional>
