<?xml version="1.0" encoding="UTF-8"?>

<!-- generated on 2024-01-20 15:54:26 by Eclipse SUMO duarouter Version 1.19.0
<configuration xmlns:xsi="http://www.w3.org/2001/XMLSchema-instance" xsi:noNamespaceSchemaLocation="http://sumo.dlr.de/xsd/duarouterConfiguration.xsd">

    <input>
        <net-file value="C:\projects\traci\sumo\cbd\tinycbd.net.xml"/>
        <route-files value="tinytrips.trips.xml"/>
    </input>

    <output>
        <output-file value="tinytrips.trips.xml.tmp"/>
        <vtype-output value="tinyvehs.add.xml"/>
        <alternatives-output value="NUL"/>
        <write-trips value="true"/>
    </output>

    <time>
        <begin value="0"/>
        <end value="100.0"/>
    </time>

    <report>
        <no-warnings value="true"/>
        <ignore-errors value="true"/>
        <no-step-log value="true"/>
    </report>

</configuration>
-->

<routes xmlns:xsi="http://www.w3.org/2001/XMLSchema-instance" xsi:noNamespaceSchemaLocation="http://sumo.dlr.de/xsd/routes_file.xsd"/>
