<?xml version="1.0" encoding="UTF-8"?>

<!-- generated on 2024-01-20 17:28:18 by Eclipse SUMO netedit Version 1.19.0
<configuration xmlns:xsi="http://www.w3.org/2001/XMLSchema-instance" xsi:noNamespaceSchemaLocation="http://sumo.dlr.de/xsd/neteditConfiguration.xsd">

    <input>
        <sumocfg-file value="C:\projects\traci\sumo\cbd\tinycbd.sumocfg"/>
        <additional-files value=""/>
        <route-files value="C:\projects\traci\sumo\cbd\tinyroutes.rou.xml"/>
        <sumo-net-file value="C:\projects\traci\sumo\cbd\tinycbd.net.xml"/>
    </input>

    <output>
        <output-file value="C:\projects\traci\sumo\cbd\tinycbd.net.xml"/>
    </output>

    <processing>
        <geometry.min-radius.fix.railways value="false"/>
        <geometry.max-grade.fix value="false"/>
        <offset.disable-normalization value="true"/>
        <lefthand value="1"/>
    </processing>

    <junctions>
        <no-turnarounds value="true"/>
        <junctions.corner-detail value="5"/>
        <junctions.limit-turn-speed value="5.50"/>
        <rectangular-lane-cut value="0"/>
    </junctions>

    <pedestrian>
        <walkingareas value="0"/>
    </pedestrian>

</configuration>
-->

<net version="1.16" junctionCornerDetail="5" lefthand="true" limitTurnSpeed="5.50" xmlns:xsi="http://www.w3.org/2001/XMLSchema-instance" xsi:noNamespaceSchemaLocation="http://sumo.dlr.de/xsd/net_file.xsd">

    <location netOffset="-318920.52,4188450.21" convBoundary="1097.49,1089.02,1840.17,1733.12" origBoundary="144.905735,-37.861839,144.993111,-37.787433" projParameter="+proj=utm +zone=55 +ellps=WGS84 +datum=WGS84 +units=m +no_defs"/>

    <type id="highway.living_street" priority="2" numLanes="1" speed="2.78" disallow="tram rail_urban rail rail_electric rail_fast ship" oneway="0"/>
    <type id="highway.service" priority="1" numLanes="1" speed="5.56" oneway="0"/>
    <type id="highway.tertiary" priority="10" numLanes="1" speed="22.22" disallow="tram rail_urban rail rail_electric rail_fast ship" oneway="0"/>
    <type id="highway.unclassified" priority="4" numLanes="1" speed="13.89" disallow="tram rail_urban rail rail_electric rail_fast ship" oneway="0"/>

    <edge id=":131124746_0" function="internal">
        <lane id=":131124746_0_0" index="0" disallow="pedestrian tram rail_urban rail rail_electric rail_fast ship" speed="6.51" length="9.05" shape="1440.68,1272.95 1439.47,1275.12 1437.86,1276.38 1435.85,1276.73 1433.44,1276.17"/>
    </edge>
    <edge id=":131124746_1" function="internal">
        <lane id=":131124746_1_0" index="0" disallow="pedestrian tram rail_urban rail rail_electric rail_fast ship" speed="6.49" length="9.03" shape="1446.90,1281.32 1444.73,1280.13 1443.47,1278.53 1443.11,1276.52 1443.67,1274.11"/>
    </edge>
    <edge id=":131124746_2" function="internal">
        <lane id=":131124746_2_0" index="0" disallow="pedestrian tram rail_urban rail rail_electric rail_fast ship" speed="5.56" length="14.42" shape="1446.90,1281.32 1433.44,1276.17"/>
    </edge>
    <edge id=":131130370_0" function="internal">
        <lane id=":131130370_0_0" index="0" speed="3.65" length="4.67" shape="1488.97,1300.99 1488.64,1299.59 1488.03,1298.93 1487.14,1299.02 1485.97,1299.87"/>
    </edge>
    <edge id=":131130411_0" function="internal">
        <lane id=":131130411_0_0" index="0" disallow="pedestrian tram rail_urban rail rail_electric rail_fast ship" speed="5.56" length="9.41" shape="1463.34,1287.52 1454.55,1284.20"/>
    </edge>
    <edge id=":131130411_1" function="internal">
        <lane id=":131130411_1_0" index="0" disallow="pedestrian tram rail_urban rail rail_electric rail_fast ship" speed="5.56" length="7.78" shape="1463.34,1287.52 1460.69,1286.73 1458.65,1286.58 1457.20,1287.07 1456.35,1288.22"/>
    </edge>
    <edge id=":131130411_2" function="internal">
        <lane id=":131130411_2_0" index="0" disallow="pedestrian tram rail_urban rail rail_electric rail_fast ship" speed="5.56" length="7.77" shape="1459.35,1289.33 1459.46,1287.92 1458.69,1286.59 1457.06,1285.35 1454.55,1284.20"/>
    </edge>
    <edge id=":131215775_0" function="internal">
        <lane id=":131215775_0_0" index="0" speed="5.56" length="9.40" shape="1577.75,1352.62 1574.27,1361.35"/>
    </edge>
    <edge id=":131215775_1" function="internal">
        <lane id=":131215775_1_0" index="0" speed="5.56" length="7.76" shape="1577.75,1352.62 1576.91,1355.25 1576.72,1357.29 1577.18,1358.75 1578.30,1359.62"/>
    </edge>
    <edge id=":131215775_2" function="internal">
        <lane id=":131215775_2_0" index="0" speed="5.56" length="7.76" shape="1579.48,1356.65 1578.08,1356.51 1576.74,1357.25 1575.47,1358.86 1574.27,1361.35"/>
    </edge>
    <edge id=":131238672_0" function="internal">
        <lane id=":131238672_0_0" index="0" disallow="pedestrian tram rail_urban rail rail_electric rail_fast ship" speed="4.17" length="8.98" shape="1716.52,1379.90 1715.31,1382.04 1713.70,1383.28 1711.70,1383.63 1709.30,1383.08"/>
    </edge>
    <edge id=":131238848_0" function="internal">
        <lane id=":131238848_0_0" index="0" disallow="pedestrian tram rail_urban rail rail_electric rail_fast ship" speed="5.56" length="9.04" shape="1687.76,1368.77 1686.54,1370.93 1684.92,1372.18 1682.91,1372.51 1680.50,1371.93"/>
    </edge>
    <edge id=":131238848_1" function="internal">
        <lane id=":131238848_1_0" index="0" disallow="pedestrian tram rail_urban rail rail_electric rail_fast ship" speed="5.56" length="8.70" shape="1693.55,1377.02 1691.55,1375.88 1690.42,1374.32 1690.15,1372.34 1690.74,1369.94"/>
    </edge>
    <edge id=":131238848_2" function="internal">
        <lane id=":131238848_2_0" index="0" disallow="pedestrian tram rail_urban rail rail_electric rail_fast ship" speed="5.56" length="14.00" shape="1693.55,1377.02 1680.50,1371.93"/>
    </edge>
    <edge id=":131247270_0" function="internal">
        <lane id=":131247270_0_0" index="0" speed="5.56" length="7.52" shape="1678.88,1424.08 1678.03,1425.76 1676.87,1427.16 1675.40,1428.28 1673.61,1429.12"/>
    </edge>
    <edge id=":131247270_1" function="internal">
        <lane id=":131247270_1_0" index="0" speed="5.56" length="10.32" shape="1678.88,1424.08 1678.26,1426.65 1678.36,1429.10 1679.21,1431.45 1680.78,1433.69"/>
    </edge>
    <edge id=":131247270_2" function="internal">
        <lane id=":131247270_2_0" index="0" speed="5.56" length="6.84" shape="1683.16,1431.57 1682.11,1430.08 1681.55,1428.52 1681.47,1426.90 1681.87,1425.21"/>
    </edge>
    <edge id=":131247270_3" function="internal">
        <lane id=":131247270_3_0" index="0" speed="5.56" length="10.53" shape="1683.16,1431.57 1681.09,1429.74 1678.80,1428.73 1676.31,1428.52 1673.61,1429.12"/>
    </edge>
    <edge id=":131247270_4" function="internal">
        <lane id=":131247270_4_0" index="0" speed="5.56" length="6.70" shape="1674.70,1432.13 1676.41,1431.75 1678.00,1431.88 1679.45,1432.53 1680.78,1433.69"/>
    </edge>
    <edge id=":131247270_5" function="internal">
        <lane id=":131247270_5_0" index="0" speed="5.56" length="10.29" shape="1674.70,1432.13 1677.12,1430.99 1679.13,1429.45 1680.71,1427.53 1681.87,1425.21"/>
    </edge>
    <edge id=":131247404_0" function="internal">
        <lane id=":131247404_0_0" index="0" speed="5.56" length="9.05" shape="1624.85,1283.14 1623.65,1285.31 1622.04,1286.57 1620.03,1286.93 1617.61,1286.39"/>
    </edge>
    <edge id=":131247404_1" function="internal">
        <lane id=":131247404_1_0" index="0" speed="5.56" length="14.41" shape="1624.85,1283.14 1619.70,1296.60"/>
    </edge>
    <edge id=":131247404_2" function="internal">
        <lane id=":131247404_2_0" index="0" speed="5.56" length="14.42" shape="1622.69,1297.75 1627.84,1284.28"/>
    </edge>
    <edge id=":131247404_3" function="internal">
        <lane id=":131247404_3_0" index="0" speed="5.56" length="14.21" shape="1622.69,1297.75 1623.56,1293.95 1623.00,1290.79 1621.02,1288.27 1617.61,1286.39"/>
    </edge>
    <edge id=":131247404_4" function="internal">
        <lane id=":131247404_4_0" index="0" speed="5.56" length="9.03" shape="1616.47,1289.38 1618.64,1290.58 1619.90,1292.18 1620.26,1294.19 1619.70,1296.60"/>
    </edge>
    <edge id=":131247404_5" function="internal">
        <lane id=":131247404_5_0" index="0" speed="5.56" length="14.21" shape="1616.47,1289.38 1620.28,1290.23 1623.44,1289.67 1625.96,1287.68 1627.84,1284.28"/>
    </edge>
    <edge id=":131247470_0" function="internal">
        <lane id=":131247470_0_0" index="0" speed="5.56" length="14.40" shape="1609.66,1283.37 1596.19,1278.27"/>
    </edge>
    <edge id=":131247470_1" function="internal">
        <lane id=":131247470_1_0" index="0" speed="5.56" length="14.19" shape="1609.66,1283.37 1605.86,1282.52 1602.71,1283.09 1600.19,1285.08 1598.30,1288.48"/>
    </edge>
    <edge id=":131247470_2" function="internal">
        <lane id=":131247470_2_0" index="0" speed="5.56" length="9.04" shape="1601.29,1289.62 1602.49,1287.45 1604.10,1286.19 1606.11,1285.83 1608.52,1286.37"/>
    </edge>
    <edge id=":131247470_3" function="internal">
        <lane id=":131247470_3_0" index="0" speed="5.56" length="14.20" shape="1601.29,1289.62 1602.15,1285.83 1601.58,1282.67 1599.60,1280.15 1596.19,1278.27"/>
    </edge>
    <edge id=":131247470_4" function="internal">
        <lane id=":131247470_4_0" index="0" speed="5.56" length="9.03" shape="1595.06,1281.26 1597.22,1282.46 1598.49,1284.06 1598.85,1286.07 1598.30,1288.48"/>
    </edge>
    <edge id=":131247470_5" function="internal">
        <lane id=":131247470_5_0" index="0" speed="5.56" length="14.40" shape="1595.06,1281.26 1608.52,1286.37"/>
    </edge>
    <edge id=":161467170_0" function="internal">
        <lane id=":161467170_0_0" index="0" speed="3.65" length="4.67" shape="1349.15,1430.75 1347.75,1431.06 1347.09,1431.67 1347.17,1432.56 1348.01,1433.73"/>
    </edge>
    <edge id=":161535896_0" function="internal">
        <lane id=":161535896_0_0" index="0" speed="5.56" length="14.40" shape="1394.52,1472.85 1389.35,1486.29"/>
    </edge>
    <edge id=":161535896_1" function="internal">
        <lane id=":161535896_1_0" index="0" speed="5.56" length="14.29" shape="1394.52,1472.85 1393.64,1476.68 1394.22,1479.84 1396.25,1482.34 1399.73,1484.17"/>
    </edge>
    <edge id=":161535896_2" function="internal">
        <lane id=":161535896_2_0" index="0" speed="5.56" length="9.03" shape="1400.80,1481.15 1398.60,1480.00 1397.32,1478.42 1396.95,1476.42 1397.51,1474.00"/>
    </edge>
    <edge id=":161535896_3" function="internal">
        <lane id=":161535896_3_0" index="0" speed="5.56" length="14.23" shape="1400.80,1481.15 1396.96,1480.36 1393.77,1480.96 1391.23,1482.93 1389.35,1486.29"/>
    </edge>
    <edge id=":161535896_4" function="internal">
        <lane id=":161535896_4_0" index="0" speed="5.56" length="9.16" shape="1392.34,1487.44 1393.55,1485.29 1395.18,1484.03 1397.24,1483.65 1399.73,1484.17"/>
    </edge>
    <edge id=":161535896_5" function="internal">
        <lane id=":161535896_5_0" index="0" speed="5.56" length="14.40" shape="1392.34,1487.44 1397.51,1474.00"/>
    </edge>
    <edge id=":168384014_0" function="internal">
        <lane id=":168384014_0_0" index="0" speed="5.56" length="9.03" shape="1575.63,1630.69 1574.42,1632.85 1572.81,1634.11 1570.80,1634.45 1568.39,1633.87"/>
    </edge>
    <edge id=":168384014_1" function="internal">
        <lane id=":168384014_1_0" index="0" speed="5.56" length="14.40" shape="1575.63,1630.69 1570.45,1644.13"/>
    </edge>
    <edge id=":168384014_2" function="internal">
        <lane id=":168384014_2_0" index="0" speed="5.56" length="14.41" shape="1573.43,1645.28 1578.62,1631.84"/>
    </edge>
    <edge id=":168384014_3" function="internal">
        <lane id=":168384014_3_0" index="0" speed="5.56" length="14.21" shape="1573.43,1645.28 1574.30,1641.50 1573.75,1638.34 1571.78,1635.80 1568.39,1633.87"/>
    </edge>
    <edge id=":168384014_4" function="internal">
        <lane id=":168384014_4_0" index="0" speed="5.56" length="9.07" shape="1567.22,1636.85 1569.39,1638.08 1570.65,1639.70 1571.00,1641.72 1570.45,1644.13"/>
    </edge>
    <edge id=":168384014_5" function="internal">
        <lane id=":168384014_5_0" index="0" speed="5.56" length="14.22" shape="1567.22,1636.85 1571.02,1637.75 1574.18,1637.22 1576.72,1635.25 1578.62,1631.84"/>
    </edge>
    <edge id=":168384030_0" function="internal">
        <lane id=":168384030_0_0" index="0" speed="5.56" length="9.07" shape="1483.54,1594.49 1482.33,1596.65 1480.71,1597.90 1478.69,1598.26 1476.25,1597.72"/>
    </edge>
    <edge id=":168384030_1" function="internal">
        <lane id=":168384030_1_0" index="0" speed="5.56" length="14.41" shape="1483.54,1594.49 1478.37,1607.94"/>
    </edge>
    <edge id=":168384030_2" function="internal">
        <lane id=":168384030_2_0" index="0" speed="5.56" length="14.21" shape="1483.54,1594.49 1482.67,1598.27 1483.22,1601.43 1485.20,1603.97 1488.59,1605.90"/>
    </edge>
    <edge id=":168384030_3" function="internal">
        <lane id=":168384030_3_0" index="0" speed="5.56" length="9.07" shape="1489.76,1602.92 1487.59,1601.69 1486.33,1600.07 1485.97,1598.05 1486.52,1595.64"/>
    </edge>
    <edge id=":168384030_4" function="internal">
        <lane id=":168384030_4_0" index="0" speed="5.56" length="14.48" shape="1489.76,1602.92 1476.25,1597.72"/>
    </edge>
    <edge id=":168384030_5" function="internal">
        <lane id=":168384030_5_0" index="0" speed="5.56" length="14.23" shape="1489.76,1602.92 1485.97,1602.02 1482.80,1602.55 1480.27,1604.53 1478.37,1607.94"/>
    </edge>
    <edge id=":168384030_6" function="internal">
        <lane id=":168384030_6_0" index="0" speed="5.56" length="9.03" shape="1481.36,1609.08 1482.56,1606.92 1484.17,1605.67 1486.18,1605.32 1488.59,1605.90"/>
    </edge>
    <edge id=":168384030_7" function="internal">
        <lane id=":168384030_7_0" index="0" speed="5.56" length="14.40" shape="1481.36,1609.08 1486.52,1595.64"/>
    </edge>
    <edge id=":168384030_8" function="internal">
        <lane id=":168384030_8_0" index="0" speed="5.56" length="14.22" shape="1481.36,1609.08 1482.22,1605.28 1481.66,1602.12 1479.67,1599.60 1476.25,1597.72"/>
    </edge>
    <edge id=":168384030_9" function="internal">
        <lane id=":168384030_9_0" index="0" speed="5.56" length="9.04" shape="1475.13,1600.72 1477.30,1601.91 1478.56,1603.51 1478.92,1605.52 1478.37,1607.94"/>
    </edge>
    <edge id=":168384030_10" function="internal">
        <lane id=":168384030_10_0" index="0" speed="5.56" length="14.42" shape="1475.13,1600.72 1488.59,1605.90"/>
    </edge>
    <edge id=":168384030_11" function="internal">
        <lane id=":168384030_11_0" index="0" speed="5.56" length="14.20" shape="1475.13,1600.72 1478.93,1601.56 1482.10,1601.00 1484.63,1599.02 1486.52,1595.64"/>
    </edge>
    <edge id=":168385919_0" function="internal">
        <lane id=":168385919_0_0" index="0" speed="5.56" length="9.03" shape="1584.26,1608.32 1583.04,1610.48 1581.43,1611.73 1579.42,1612.07 1577.01,1611.50"/>
    </edge>
    <edge id=":168385919_1" function="internal">
        <lane id=":168385919_1_0" index="0" speed="5.56" length="14.40" shape="1584.26,1608.32 1579.07,1621.75"/>
    </edge>
    <edge id=":168385919_2" function="internal">
        <lane id=":168385919_2_0" index="0" speed="5.56" length="14.39" shape="1582.06,1622.90 1587.24,1609.48"/>
    </edge>
    <edge id=":168385919_3" function="internal">
        <lane id=":168385919_3_0" index="0" speed="5.56" length="14.20" shape="1582.06,1622.90 1582.92,1619.12 1582.37,1615.96 1580.40,1613.42 1577.01,1611.50"/>
    </edge>
    <edge id=":168385919_4" function="internal">
        <lane id=":168385919_4_0" index="0" speed="5.56" length="9.06" shape="1575.84,1614.48 1578.01,1615.70 1579.27,1617.33 1579.62,1619.34 1579.07,1621.75"/>
    </edge>
    <edge id=":168385919_5" function="internal">
        <lane id=":168385919_5_0" index="0" speed="5.56" length="14.21" shape="1575.84,1614.48 1579.63,1615.38 1582.80,1614.84 1585.33,1612.88 1587.24,1609.48"/>
    </edge>
    <edge id=":168396881_0" function="internal">
        <lane id=":168396881_0_0" index="0" speed="5.56" length="7.81" shape="1473.58,1620.44 1473.11,1622.52 1473.42,1624.26 1474.52,1625.63 1476.40,1626.65"/>
    </edge>
    <edge id=":168396881_1" function="internal">
        <lane id=":168396881_1_0" index="0" speed="3.65" length="4.67" shape="1473.58,1620.44 1473.90,1621.84 1474.51,1622.50 1475.40,1622.41 1476.57,1621.58"/>
    </edge>
    <edge id=":168396881_2" function="internal">
        <lane id=":168396881_2_0" index="0" speed="3.90" length="2.60" shape="1477.51,1623.65 1476.88,1623.31 1476.52,1622.85 1476.41,1622.28 1476.57,1621.58"/>
    </edge>
    <edge id=":168396881_3" function="internal">
        <lane id=":168396881_3_0" index="0" speed="3.65" length="4.67" shape="1477.51,1623.65 1476.11,1623.99 1475.46,1624.60 1475.55,1625.49 1476.40,1626.65"/>
    </edge>
    <edge id=":168398812_0" function="internal">
        <lane id=":168398812_0_0" index="0" speed="5.56" length="7.68" shape="1598.29,1520.64 1598.77,1518.60 1598.48,1516.88 1597.43,1515.50 1595.61,1514.44"/>
    </edge>
    <edge id=":168398812_1" function="internal">
        <lane id=":168398812_1_0" index="0" speed="3.90" length="2.56" shape="1594.42,1517.41 1595.02,1517.76 1595.37,1518.22 1595.47,1518.79 1595.31,1519.48"/>
    </edge>
    <edge id=":168404058_0" function="internal">
        <lane id=":168404058_0_0" index="0" speed="5.56" length="14.40" shape="1630.60,1541.07 1625.61,1554.57"/>
    </edge>
    <edge id=":168404058_1" function="internal">
        <lane id=":168404058_1_0" index="0" speed="5.56" length="14.19" shape="1630.60,1541.07 1629.78,1544.87 1630.38,1548.02 1632.39,1550.52 1635.81,1552.38"/>
    </edge>
    <edge id=":168404058_2" function="internal">
        <lane id=":168404058_2_0" index="0" speed="5.56" length="9.04" shape="1636.92,1549.38 1634.74,1548.20 1633.46,1546.60 1633.08,1544.60 1633.60,1542.18"/>
    </edge>
    <edge id=":168404058_3" function="internal">
        <lane id=":168404058_3_0" index="0" speed="5.56" length="14.20" shape="1636.92,1549.38 1633.12,1548.55 1629.97,1549.14 1627.46,1551.15 1625.61,1554.57"/>
    </edge>
    <edge id=":168404058_4" function="internal">
        <lane id=":168404058_4_0" index="0" speed="5.56" length="9.03" shape="1628.61,1555.68 1629.79,1553.51 1631.38,1552.23 1633.39,1551.86 1635.81,1552.38"/>
    </edge>
    <edge id=":168404058_5" function="internal">
        <lane id=":168404058_5_0" index="0" speed="5.56" length="14.40" shape="1628.61,1555.68 1633.60,1542.18"/>
    </edge>
    <edge id=":168408619_0" function="internal">
        <lane id=":168408619_0_0" index="0" disallow="tram rail_urban rail rail_electric rail_fast ship" speed="4.17" length="9.10" shape="1550.06,1532.62 1548.87,1534.79 1547.25,1536.06 1545.22,1536.43 1542.76,1535.92"/>
    </edge>
    <edge id=":168408619_1" function="internal">
        <lane id=":168408619_1_0" index="0" disallow="tram rail_urban rail rail_electric rail_fast ship" speed="2.78" length="14.40" shape="1550.06,1532.62 1544.98,1546.10"/>
    </edge>
    <edge id=":168408619_2" function="internal">
        <lane id=":168408619_2_0" index="0" disallow="tram rail_urban rail rail_electric rail_fast ship" speed="4.17" length="9.03" shape="1541.68,1538.93 1543.87,1540.09 1545.15,1541.67 1545.52,1543.68 1544.98,1546.10"/>
    </edge>
    <edge id=":2020813846_0" function="internal">
        <lane id=":2020813846_0_0" index="0" disallow="tram rail_urban rail rail_electric rail_fast ship" speed="11.11" length="9.43" shape="1425.35,1574.83 1421.85,1583.58"/>
    </edge>
    <edge id=":2020813846_1" function="internal">
        <lane id=":2020813846_1_0" index="0" disallow="tram rail_urban rail rail_electric rail_fast ship" speed="6.09" length="7.79" shape="1425.35,1574.83 1424.49,1577.45 1424.29,1579.50 1424.75,1580.97 1425.88,1581.85"/>
    </edge>
    <edge id=":2020813846_2" function="internal">
        <lane id=":2020813846_2_0" index="0" disallow="tram rail_urban rail rail_electric rail_fast ship" speed="6.07" length="7.80" shape="1427.09,1578.89 1425.66,1578.73 1424.31,1579.46 1423.04,1581.08 1421.85,1583.58"/>
    </edge>
    <edge id=":2020813895_0" function="internal">
        <lane id=":2020813895_0_0" index="0" disallow="tram rail_urban rail rail_electric rail_fast ship" speed="11.11" length="9.43" shape="1471.74,1452.26 1468.33,1461.07"/>
        <lane id=":2020813895_0_1" index="1" disallow="tram rail_urban rail rail_electric rail_fast ship" speed="11.11" length="9.43" shape="1474.72,1453.42 1471.32,1462.21"/>
    </edge>
    <edge id=":2020813895_2" function="internal">
        <lane id=":2020813895_2_0" index="0" disallow="tram rail_urban rail rail_electric rail_fast ship" speed="6.05" length="7.83" shape="1474.72,1453.42 1473.89,1456.08 1473.74,1458.13 1474.26,1459.58 1475.44,1460.43"/>
    </edge>
    <edge id=":2020813895_3" function="internal">
        <lane id=":2020813895_3_0" index="0" disallow="tram rail_urban rail rail_electric rail_fast ship" speed="6.14" length="7.81" shape="1476.53,1457.42 1475.09,1457.32 1473.74,1458.08 1472.49,1459.71 1471.32,1462.21"/>
    </edge>
    <edge id=":3158860637_0" function="internal">
        <lane id=":3158860637_0_0" index="0" disallow="tram rail_urban rail rail_electric rail_fast ship" speed="6.51" length="9.03" shape="1371.37,1219.31 1370.15,1221.47 1368.54,1222.72 1366.53,1223.06 1364.12,1222.50"/>
    </edge>
    <edge id=":3158860637_1" function="internal">
        <lane id=":3158860637_1_0" index="0" disallow="tram rail_urban rail rail_electric rail_fast ship" speed="13.89" length="14.40" shape="1371.37,1219.31 1366.15,1232.73"/>
    </edge>
    <edge id=":3158860637_2" function="internal">
        <lane id=":3158860637_2_0" index="0" disallow="tram rail_urban rail rail_electric rail_fast ship" speed="13.89" length="14.40" shape="1369.14,1233.89 1374.35,1220.47"/>
    </edge>
    <edge id=":3158860637_3" function="internal">
        <lane id=":3158860637_3_0" index="0" disallow="tram rail_urban rail rail_electric rail_fast ship" speed="8.00" length="4.06" shape="1369.14,1233.89 1370.02,1230.10 1369.99,1229.93"/>
    </edge>
    <edge id=":3158860637_6" function="internal">
        <lane id=":3158860637_6_0" index="0" disallow="tram rail_urban rail rail_electric rail_fast ship" speed="8.00" length="10.13" shape="1369.99,1229.93 1369.47,1226.94 1367.51,1224.41 1364.12,1222.50"/>
    </edge>
    <edge id=":3158860637_4" function="internal">
        <lane id=":3158860637_4_0" index="0" disallow="tram rail_urban rail rail_electric rail_fast ship" speed="6.51" length="9.03" shape="1362.96,1225.49 1365.12,1226.70 1366.37,1228.31 1366.71,1230.32 1366.15,1232.73"/>
    </edge>
    <edge id=":3158860637_5" function="internal">
        <lane id=":3158860637_5_0" index="0" disallow="tram rail_urban rail rail_electric rail_fast ship" speed="8.00" length="14.19" shape="1362.96,1225.49 1366.75,1226.37 1369.91,1225.82 1372.44,1223.86 1374.35,1220.47"/>
    </edge>
    <edge id=":595594362_0" function="internal">
        <lane id=":595594362_0_0" index="0" disallow="tram rail_urban rail rail_electric rail_fast ship" speed="7.62" length="12.90" shape="1542.66,1429.58 1540.86,1433.01 1538.62,1435.09 1535.93,1435.79 1532.81,1435.14"/>
    </edge>
    <edge id=":595594362_1" function="internal">
        <lane id=":595594362_1_0" index="0" speed="5.56" length="14.04" shape="1542.66,1429.58 1541.14,1432.83 1539.40,1435.79 1537.66,1438.74 1536.12,1441.99"/>
    </edge>
    <edge id=":595594362_2" function="internal">
        <lane id=":595594362_2_0" index="0" disallow="tram rail_urban rail rail_electric rail_fast ship" speed="11.11" length="14.36" shape="1547.35,1437.42 1534.00,1432.17"/>
        <lane id=":595594362_2_1" index="1" disallow="tram rail_urban rail rail_electric rail_fast ship" speed="11.11" length="14.36" shape="1546.19,1440.41 1532.81,1435.14"/>
    </edge>
    <edge id=":595594362_4" function="internal">
        <lane id=":595594362_4_0" index="0" disallow="tram rail_urban rail rail_electric rail_fast ship" speed="7.24" length="11.38" shape="1546.19,1440.41 1542.49,1439.31 1539.57,1439.21 1537.45,1440.11 1536.12,1441.99"/>
    </edge>
    <edge id=":595594363_0" function="internal">
        <lane id=":595594363_0_0" index="0" disallow="tram rail_urban rail rail_electric rail_fast ship" speed="6.49" length="9.03" shape="1525.55,1422.74 1524.35,1424.91 1522.74,1426.17 1520.73,1426.51 1518.32,1425.95"/>
        <lane id=":595594363_0_1" index="1" disallow="tram rail_urban rail rail_electric rail_fast ship" speed="7.31" length="11.74" shape="1525.55,1422.74 1523.85,1426.22 1521.88,1428.41 1519.65,1429.31 1517.15,1428.93"/>
    </edge>
    <edge id=":595594363_2" function="internal">
        <lane id=":595594363_2_0" index="0" disallow="tram rail_urban rail rail_electric rail_fast ship" speed="6.57" length="9.10" shape="1531.70,1431.25 1529.56,1430.01 1528.32,1428.37 1527.98,1426.33 1528.54,1423.88"/>
    </edge>
    <edge id=":595594363_3" function="internal">
        <lane id=":595594363_3_0" index="0" disallow="tram rail_urban rail rail_electric rail_fast ship" speed="11.11" length="14.37" shape="1531.70,1431.25 1518.32,1425.95"/>
        <lane id=":595594363_3_1" index="1" disallow="tram rail_urban rail rail_electric rail_fast ship" speed="11.11" length="14.37" shape="1530.50,1434.22 1517.15,1428.93"/>
    </edge>
    <edge id=":595594365_0" function="internal">
        <lane id=":595594365_0_0" index="0" disallow="tram rail_urban rail rail_electric rail_fast ship" speed="6.59" length="9.13" shape="1460.46,1397.42 1459.19,1399.59 1457.53,1400.86 1455.51,1401.22 1453.10,1400.67"/>
        <lane id=":595594365_0_1" index="1" disallow="tram rail_urban rail rail_electric rail_fast ship" speed="7.40" length="11.80" shape="1460.46,1397.42 1458.66,1400.89 1456.63,1403.09 1454.40,1404.01 1451.94,1403.65"/>
    </edge>
    <edge id=":595594365_2" function="internal">
        <lane id=":595594365_2_0" index="0" disallow="tram rail_urban rail rail_electric rail_fast ship" speed="6.47" length="9.03" shape="1466.52,1405.89 1464.36,1404.67 1463.12,1403.05 1462.81,1401.04 1463.42,1398.64"/>
    </edge>
    <edge id=":595594365_3" function="internal">
        <lane id=":595594365_3_0" index="0" disallow="tram rail_urban rail rail_electric rail_fast ship" speed="11.11" length="14.39" shape="1466.52,1405.89 1453.10,1400.67"/>
        <lane id=":595594365_3_1" index="1" disallow="tram rail_urban rail rail_electric rail_fast ship" speed="11.11" length="14.39" shape="1465.35,1408.87 1451.94,1403.65"/>
    </edge>
    <edge id=":6167152987_0" function="internal">
        <lane id=":6167152987_0_0" index="0" disallow="tram rail_urban rail rail_electric rail_fast ship" speed="6.51" length="9.04" shape="1382.58,1367.29 1381.37,1369.45 1379.75,1370.70 1377.74,1371.05 1375.33,1370.49"/>
    </edge>
    <edge id=":6167152987_1" function="internal">
        <lane id=":6167152987_1_0" index="0" disallow="tram rail_urban rail rail_electric rail_fast ship" speed="6.51" length="9.03" shape="1388.75,1375.70 1386.60,1374.48 1385.35,1372.87 1385.00,1370.86 1385.56,1368.45"/>
    </edge>
    <edge id=":6167152987_2" function="internal">
        <lane id=":6167152987_2_0" index="0" disallow="tram rail_urban rail rail_electric rail_fast ship" speed="11.11" length="14.40" shape="1388.75,1375.70 1375.33,1370.49"/>
        <lane id=":6167152987_2_1" index="1" disallow="tram rail_urban rail rail_electric rail_fast ship" speed="11.11" length="14.40" shape="1387.60,1378.68 1374.17,1373.47"/>
    </edge>
    <edge id=":621539575_0" function="internal">
        <lane id=":621539575_0_0" index="0" disallow="pedestrian tram rail_urban rail rail_electric rail_fast ship" speed="5.56" length="9.13" shape="1471.56,1284.56 1470.31,1286.74 1468.67,1288.03 1466.65,1288.40 1464.24,1287.86"/>
    </edge>
    <edge id=":621539575_1" function="internal">
        <lane id=":621539575_1_0" index="0" disallow="pedestrian tram rail_urban rail rail_electric rail_fast ship" speed="5.56" length="8.68" shape="1477.30,1292.80 1475.30,1291.68 1474.18,1290.12 1473.92,1288.15 1474.53,1285.74"/>
    </edge>
    <edge id=":621539575_2" function="internal">
        <lane id=":621539575_2_0" index="0" disallow="pedestrian tram rail_urban rail rail_electric rail_fast ship" speed="5.56" length="13.97" shape="1477.30,1292.80 1464.24,1287.86"/>
    </edge>
    <edge id=":621539577_0" function="internal">
        <lane id=":621539577_0_0" index="0" disallow="pedestrian tram rail_urban rail rail_electric rail_fast ship" speed="5.56" length="8.68" shape="1484.26,1289.43 1483.11,1291.62 1481.60,1292.92 1479.72,1293.34 1477.48,1292.87"/>
    </edge>
    <edge id=":621539577_1" function="internal">
        <lane id=":621539577_1_0" index="0" speed="3.65" length="4.67" shape="1484.26,1289.43 1484.60,1290.83 1485.21,1291.49 1486.10,1291.39 1487.27,1290.54"/>
    </edge>
    <edge id=":6381384377_0" function="internal">
        <lane id=":6381384377_0_0" index="0" disallow="tram rail_urban rail rail_electric rail_fast ship" speed="11.11" length="9.40" shape="1420.91,1388.18 1412.14,1384.78"/>
        <lane id=":6381384377_0_1" index="1" disallow="tram rail_urban rail rail_electric rail_fast ship" speed="11.11" length="9.40" shape="1419.75,1391.16 1410.99,1387.76"/>
    </edge>
    <edge id=":6381384377_2" function="internal">
        <lane id=":6381384377_2_0" index="0" disallow="tram rail_urban rail rail_electric rail_fast ship" speed="6.00" length="7.48" shape="1419.75,1391.16 1417.12,1390.32 1415.11,1390.08 1413.70,1390.43 1412.90,1391.38"/>
    </edge>
    <edge id=":6381384377_3" function="internal">
        <lane id=":6381384377_3_0" index="0" disallow="tram rail_urban rail rail_electric rail_fast ship" speed="6.75" length="9.86" shape="1415.87,1392.56 1416.46,1390.02 1416.03,1387.87 1414.59,1386.13 1412.14,1384.78"/>
    </edge>