<?xml version="1.0" encoding="UTF-8"?>

<!-- generated on 2024-01-19 18:48:58 by Eclipse SUMO sumo Version 1.19.0
-->

<configuration xmlns:xsi="http://www.w3.org/2001/XMLSchema-instance" xsi:noNamespaceSchemaLocation="http://sumo.dlr.de/xsd/sumoConfiguration.xsd">

    <input>
        <net-file value="tinycbd.net.xml"/>
        <route-files value="tinyroutes.rou.xml"/>
    </input>

</configuration>
