<?xml version="1.0" encoding="UTF-8"?>

<!-- generated on 2024-01-20 19:15:27.849324 by randomTrips.py v1_19_0+0000-baa66a0f364
<configuration>
    <net-file value="C:\projects\traci\sumo\cbd\tinycbd.net.xml"/>
    <weights-prefix value="weights"/>
    <output-trip-file value="tinytrips.trips.xml"/>
    <route-file value="C:\projects\traci\sumo\cbd\tinyroutes.rou.xml"/>
    <fringe-factor value="max"/>
    <validate value="True"/>
    <end value="100.0"/>
    <period value="1.0"/>
    <binomial value="100"/>
</configuration>
-->

<!-- generated on 2024-01-20 19:15:27 by Eclipse SUMO duarouter Version 1.19.0
<configuration xmlns:xsi="http://www.w3.org/2001/XMLSchema-instance" xsi:noNamespaceSchemaLocation="http://sumo.dlr.de/xsd/duarouterConfiguration.xsd">

    <input>
        <net-file value="C:\projects\traci\sumo\cbd\tinycbd.net.xml"/>
        <route-files value="tinytrips.trips.xml"/>
    </input>

    <output>
        <output-file value="C:\projects\traci\sumo\cbd\tinyroutes.rou.xml"/>
        <alternatives-output value="NUL"/>
    </output>

    <time>
        <begin value="0"/>
        <end value="100.0"/>
    </time>

    <report>
        <no-warnings value="true"/>
        <ignore-errors value="true"/>
        <no-step-log value="true"/>
    </report>

</configuration>
-->

<routes xmlns:xsi="http://www.w3.org/2001/XMLSchema-instance" xsi:noNamespaceSchemaLocation="http://sumo.dlr.de/xsd/routes_file.xsd">
    <flow id="0" begin="0.00" end="100" probability="0.01">
        <route edges="-E7 296383691#12 296383691#15 581959650#1 13908122#1 726010044"/>
    </flow>
    <flow id="4" begin="0.00" end="100" probability="0.01">
        <route edges="-E0 191505321#1 191505321#2 191505321#5 191505321#6 198005098#1 198005098#2 198005098#3 198005098#4 E4"/>
    </flow>
    <flow id="5" begin="0.00" end="100" probability="0.01">
        <route edges="-E9 505256328#1 505256328#3 505256328#4 5095075#1 5095075#2 1127382302#2 E12 1127382302#5 16361622#1 16361622#2"/>
    </flow>
    <flow id="7" begin="0.00" end="100" probability="0.01">
        <route edges="-E7 296383691#12 296383691#15 581959650#1 581959650#2 581959650#3 581959650#4 E10"/>
    </flow>
    <flow id="8" begin="0.00" end="100" probability="0.01">
        <route edges="-E2 E1"/>
    </flow>
    <flow id="9" begin="0.00" end="100" probability="0.01">
        <route edges="-E3 734406094#2 734406094#4 734406094#5 734406094#6 734406094#7 5095075#1 5095075#2 1127382302#2 E12 1127382302#5 1127382302#6 1127382302#7 16361760#1"/>
    </flow>
    <flow id="10" begin="0.00" end="100" probability="0.01">
        <route edges="-E7 296383691#12 296383691#15 198005098#1 198005098#2 198005098#3 198005098#4 E5"/>
    </flow>
    <flow id="11" begin="0.00" end="100" probability="0.01">
        <route edges="-E8 296383691#12 296383691#15 5095075#1 5095075#2 715611140#1 16361138#0 16361138#2 16361186#0 16361186#1 -207884332#1"/>
    </flow>
    <flow id="12" begin="0.00" end="100" probability="0.01">
        <route edges="-E8 296383691#12 296383691#15 5095075#1 5095075#2 1127382302#2 E12 1127382302#5 1127382302#6 1127382302#7 -48530796#0 16361758#1"/>
    </flow>
    <flow id="14" begin="0.00" end="100" probability="0.01">
        <route edges="-E6 296383691#12 296383691#15 198005098#1 -681454143"/>
    </flow>
    <flow id="16" begin="0.00" end="100" probability="0.01">
        <route edges="-E4 734406094#2 -13911667#1 715211394#12 715211394#14 715211394#15 1126800685#5 E6"/>
    </flow>
    <flow id="17" begin="0.00" end="100" probability="0.01">
        <route edges="-E4 734406094#2 734406094#4 13911192#1 -16361903"/>
    </flow>
    <flow id="19" begin="0.00" end="100" probability="0.01">
        <route edges="-E4 734406094#2 -13911667#1 13911663#1"/>
    </flow>
    <flow id="22" begin="0.00" end="100" probability="0.01">
        <route edges="-E11 505256328#1 505256328#3 505256328#4 198005098#1 198005098#2 198005098#3 -13911667#1 13911661#1"/>
    </flow>
    <flow id="23" begin="0.00" end="100" probability="0.01">
        <route edges="-E1 E2"/>
    </flow>
    <flow id="24" begin="0.00" end="100" probability="0.01">
        <route edges="-E7 296383691#12 296383691#15 5095075#1 5095075#2 715611140#1 715611140#2 E0"/>
    </flow>
    <flow id="25" begin="0.00" end="100" probability="0.01">
        <route edges="-E9 505256328#1 112933971#1"/>
    </flow>
    <flow id="26" begin="0.00" end="100" probability="0.01">
        <route edges="-E3 734406094#2 734406094#4 734406094#5 734406094#6 734406094#7 5095075#1 5095075#2 715611140#1 16361138#0 16361138#2 16361138#3 -207884332#3 -207884329#1"/>
    </flow>
    <flow id="27" begin="0.00" end="100" probability="0.01">
        <route edges="-E6 296383691#12 296383691#15 5095075#1 5095075#2 715611140#1 715611140#2 E2"/>
    </flow>
    <flow id="29" begin="0.00" end="100" probability="0.01">
        <route edges="-E10 505256328#1 505256328#3 505256328#4 5095075#1 5095075#2 1127382302#2 E12 1127382302#5 1127382302#6 1127382302#7 -48530796#0 16361758#1"/>
    </flow>
    <flow id="30" begin="0.00" end="100" probability="0.01">
        <route edges="-E2 191505321#1 191505321#2 191505321#5 191505321#6 581959650#1 581959650#2 581959650#3 -13910031#1 1201027245#9 13907356#1"/>
    </flow>
    <flow id="31" begin="0.00" end="100" probability="0.01">
        <route edges="-E5 E3"/>
    </flow>
    <flow id="32" begin="0.00" end="100" probability="0.01">
        <route edges="-E9 505256328#1 112933971#1"/>
    </flow>
    <flow id="33" begin="0.00" end="100" probability="0.01">
        <route edges="-E2 E0"/>
    </flow>
    <flow id="35" begin="0.00" end="100" probability="0.01">
        <route edges="-E11 505256328#1 505256328#3 -16069339#0 581959650#3 581959650#4 E11"/>
    </flow>
    <flow id="36" begin="0.00" end="100" probability="0.01">
        <route edges="-E11 505256328#1 505256328#3 505256328#4 5095075#1 5095075#2 715611140#1 715611140#2 E1"/>
    </flow>
    <flow id="37" begin="0.00" end="100" probability="0.01">
        <route edges="-E6 296383691#12 296383691#15 198005098#1 198005098#2 198005098#3 198005098#4 E5"/>
    </flow>
    <flow id="38" begin="0.00" end="100" probability="0.01">
        <route edges="-E1 191505321#1 191505321#2 1127382302#2 E12 1127382302#5 1127382302#6 1127382302#7 16361760#1"/>
    </flow>
    <flow id="41" begin="0.00" end="100" probability="0.01">
        <route edges="-E5 734406094#2 734406094#4 734406094#5 734406094#6 734406094#7 5095075#1 5095075#2 1127382302#2 E12 1127382302#5 16361622#1 16361622#2"/>
    </flow>
    <flow id="44" begin="0.00" end="100" probability="0.01">
        <route edges="-E1 191505321#1 16361138#2 16361186#0 16361186#1 -207884332#1"/>
    </flow>
    <flow id="45" begin="0.00" end="100" probability="0.01">
        <route edges="-E1 191505321#1 191505321#2 191505321#5 191505321#6 581959650#1 581959650#2 581959650#3 581959650#4 E9"/>
    </flow>
    <flow id="46" begin="0.00" end="100" probability="0.01">
        <route edges="-E7 296383691#12 296383691#15 581959650#1 581959650#2 581959650#3 -13910031#1 1201027245#9 13907356#1"/>
    </flow>
    <flow id="47" begin="0.00" end="100" probability="0.01">
        <route edges="-E7 296383691#12 296383691#15 198005098#1 198005098#2 198005098#3 198005098#4 E3"/>
    </flow>
    <flow id="48" begin="0.00" end="100" probability="0.01">
        <route edges="-E9 505256328#1 505256328#3 505256328#4 198005098#1 198005098#2 198005098#3 -13911667#1 715211394#12 715211394#14 715211394#15 1126800685#5 E7"/>
    </flow>
    <flow id="51" begin="0.00" end="100" probability="0.01">
        <route edges="-E0 191505321#1 191505321#2 191505321#5 191505321#6 581959650#1 581959650#2 581959650#3 581959650#4 E10"/>
    </flow>
    <flow id="52" begin="0.00" end="100" probability="0.01">
        <route edges="-E5 734406094#2 -13911667#1 13911663#1"/>
    </flow>
    <flow id="54" begin="0.00" end="100" probability="0.01">
        <route edges="-E8 296383691#12 296383691#15 581959650#1 581959650#2 581959650#3 -13910031#1 1201027245#9 13907356#1"/>
    </flow>
    <flow id="55" begin="0.00" end="100" probability="0.01">
        <route edges="-E0 191505321#1 191505321#2 191505321#5 191505321#6 581959650#1 581959650#2 581959650#3 -13910031#1 1201027245#9 1201027245#10 13907174#1 310460930"/>
    </flow>
    <flow id="56" begin="0.00" end="100" probability="0.01">
        <route edges="-E6 296383691#12 296383691#15 198005098#1 198005098#2 198005098#3 -13911667#1 715211394#12 715211394#14 13910969#1 13911006"/>
    </flow>
    <flow id="58" begin="0.00" end="100" probability="0.01">
        <route edges="-E1 191505321#1 16361138#2 16361186#0 16361186#1 -207884332#1"/>
    </flow>
    <flow id="60" begin="0.00" end="100" probability="0.01">
        <route edges="-E9 505256328#1 505256328#3 505256328#4 5095075#1 5095075#2 715611140#1 715611140#2 E2"/>
    </flow>
    <flow id="61" begin="0.00" end="100" probability="0.01">
        <route edges="-E10 505256328#1 505256328#3 505256328#4 5095075#1 5095075#2 1127382302#2 E12 1127382302#5 1127382302#6 1127382302#7 -48530796#0 -16361758#0"/>
    </flow>
    <flow id="62" begin="0.00" end="100" probability="0.01">
        <route edges="-E10 505256328#1 505256328#3 505256328#4 5095075#1 5095075#2 715611140#1 16361138#0 16361138#2 16361138#3 -207884332#3 -207884329#1"/>
    </flow>
    <flow id="63" begin="0.00" end="100" probability="0.01">
        <route edges="-E9 505256328#1 505256328#3 505256328#4 198005098#1 198005098#2 198005098#3 -13911667#1 715211394#12 13911922#1 -13911923#1 -13911923#0"/>
    </flow>
    <flow id="64" begin="0.00" end="100" probability="0.01">
        <route edges="-E6 E8"/>
    </flow>
    <flow id="65" begin="0.00" end="100" probability="0.01">
        <route edges="-E11 505256328#1 505256328#3 505256328#4 198005098#1 198005098#2 198005098#3 -13911667#1 715211394#12 715211394#14 715211394#15 1126800685#5 E8"/>
    </flow>
    <flow id="67" begin="0.00" end="100" probability="0.01">
        <route edges="-E1 191505321#1 191505321#2 191505321#5 191505321#6 198005098#1 -681454143"/>
    </flow>
    <flow id="68" begin="0.00" end="100" probability="0.01">
        <route edges="-E5 734406094#2 734406094#4 734406094#5 734406094#6 734406094#7 581959650#1 13908122#1 726010044"/>
    </flow>
    <flow id="69" begin="0.00" end="100" probability="0.01">
        <route edges="-E7 296383691#12 296383691#15 198005098#1 198005098#2 198005098#3 -13911667#1 715211394#12 715211394#14 715211394#15 1126800685#5 E7"/>
    </flow>
    <flow id="71" begin="0.00" end="100" probability="0.01">
        <route edges="-E3 734406094#2 734406094#4 734406094#5 734406094#6 734406094#7 5095075#1 5095075#2 715611140#1 715611140#2 E2"/>
    </flow>
    <flow id="72" begin="0.00" end="100" probability="0.01">
        <route edges="-E9 505256328#1 505256328#3 505256328#4 198005098#1 198005098#2 198005098#3 -13911667#1 715211394#12 13911922#1 13911922#2"/>
    </flow>
    <flow id="73" begin="0.00" end="100" probability="0.01">
        <route edges="-E3 E5"/>
    </flow>
    <flow id="74" begin="0.00" end="100" probability="0.01">
        <route edges="-E3 734406094#2 -13911667#1 715211394#12 715211394#14 715211394#15 1126800685#5 E7"/>
    </flow>
    <flow id="75" begin="0.00" end="100" probability="0.01">
        <route edges="-E10 505256328#1 505256328#3 505256328#4 5095075#1 5095075#2 1127382302#2 E12 1127382302#5 1127382302#6 1127382302#7 -48530796#0 -16361758#0"/>
    </flow>
    <flow id="78" begin="0.00" end="100" probability="0.01">
        <route edges="-E11 505256328#1 505256328#3 505256328#4 5095075#1 5095075#2 715611140#1 715611140#2 E2"/>
    </flow>
    <flow id="79" begin="0.00" end="100" probability="0.01">
        <route edges="-E7 296383691#12 296383691#15 5095075#1 5095075#2 715611140#1 715611140#2 E2"/>
    </flow>
    <flow id="80" begin="0.00" end="100" probability="0.01">
        <route edges="-E1 191505321#1 191505321#2 191505321#5 191505321#6 198005098#1 198005098#2 198005098#3 -13911667#1 715211394#12 13911922#1 -13911923#1 -13911925"/>
    </flow>
    <flow id="81" begin="0.00" end="100" probability="0.01">
        <route edges="-E7 296383691#12 296383691#15 5095075#1 5095075#2 715611140#1 715611140#2 E1"/>
    </flow>
    <flow id="82" begin="0.00" end="100" probability="0.01">
        <route edges="-E8 296383691#12 296383691#15 5095075#1 5095075#2 1127382302#2 E12 1127382302#5 1127382302#6 1127382302#7 -48530796#0 -16361758#0"/>
    </flow>
    <flow id="84" begin="0.00" end="100" probability="0.01">
        <route edges="-E4 734406094#2 734406094#4 734406094#5 734406094#6 734406094#7 581959650#1 581959650#2 581959650#3 581959650#4 E9"/>
    </flow>
    <flow id="85" begin="0.00" end="100" probability="0.01">
        <route edges="-E5 734406094#2 734406094#4 734406094#5 734406094#6 734406094#7 581959650#1 581959650#2 581959650#3 581959650#4 E9"/>
    </flow>
    <flow id="86" begin="0.00" end="100" probability="0.01">
        <route edges="-E0 191505321#1 191505321#2 1127382302#2 E12 1127382302#5 16361622#1 16361622#2"/>
    </flow>
    <flow id="87" begin="0.00" end="100" probability="0.01">
        <route edges="-E6 296383691#12 296383691#15 5095075#1 5095075#2 1127382302#2 E12 1127382302#5 1127382302#6 1127382302#7 -48530796#0 16361758#1"/>
    </flow>
    <flow id="88" begin="0.00" end="100" probability="0.01">
        <route edges="-E11 505256328#1 505256328#3 505256328#4 198005098#1 198005098#2 198005098#3 -13911667#1 715211394#12 715211394#14 715211394#15 1126800685#5 E7"/>
    </flow>
    <flow id="89" begin="0.00" end="100" probability="0.01">
        <route edges="-E2 191505321#1 191505321#2 191505321#5 191505321#6 198005098#1 198005098#2 198005098#3 -13911667#1 715211394#12 715211394#14 715211394#15 1126800685#5 E8"/>
    </flow>
    <flow id="90" begin="0.00" end="100" probability="0.01">
        <route edges="-E4 734406094#2 734406094#4 734406094#5 734406094#6 734406094#7 5095075#1 5095075#2 715611140#1 16361138#0 16361138#2 16361186#0 16361186#1 -207884332#1"/>
    </flow>
    <flow id="92" begin="0.00" end="100" probability="0.01">
        <route edges="-E2 191505321#1 191505321#2 191505321#5 191505321#6 581959650#1 581959650#2 581959650#3 -13910031#1 1201027245#9 1201027245#10 13907174#1 310460930"/>
    </flow>
    <flow id="93" begin="0.00" end="100" probability="0.01">
        <route edges="-E9 505256328#1 505256328#3 505256328#4 5095075#1 5095075#2 715611140#1 16361138#0 16361138#2 16361186#0 16361186#1 -207884332#1"/>
    </flow>
    <flow id="97" begin="0.00" end="100" probability="0.01">
        <route edges="-E7 296383691#12 296383691#15 5095075#1 5095075#2 1127382302#2 E12 1127382302#5 1127382302#6 1127382302#7 16361760#1"/>
    </flow>
    <flow id="98" begin="0.00" end="100" probability="0.01">
        <route edges="-E3 734406094#2 734406094#4 734406094#5 734406094#6 734406094#7 5095075#1 5095075#2 715611140#1 715611140#2 E2"/>
    </flow>
    <flow id="100" begin="0.00" end="100" probability="0.01">
        <route edges="-E11 505256328#1 505256328#3 505256328#4 198005098#1 198005098#2 198005098#3 -13911667#1 13911661#1"/>
    </flow>
    <flow id="101" begin="0.00" end="100" probability="0.01">
        <route edges="-E7 296383691#12 296383691#15 198005098#1 198005098#2 198005098#3 198005098#4 E4"/>
    </flow>
    <flow id="103" begin="0.00" end="100" probability="0.01">
        <route edges="-E5 734406094#2 734406094#4 734406094#5 734406094#6 734406094#7 5095075#1 5095075#2 715611140#1 16361138#0 16361138#2 16361138#3 -207884332#3 -207884329#1"/>
    </flow>
</routes>
