<?xml version="1.0" encoding="UTF-8"?>

<!-- generated on 2024-01-20 19:15:28.010728 by randomTrips.py v1_19_0+0000-baa66a0f364
<configuration>
    <net-file value="C:\projects\traci\sumo\cbd\tinycbd.net.xml"/>
    <weights-prefix value="weights"/>
    <output-trip-file value="tinytrips.trips.xml"/>
    <route-file value="C:\projects\traci\sumo\cbd\tinyroutes.rou.xml"/>
    <fringe-factor value="max"/>
    <validate value="True"/>
    <end value="100.0"/>
    <period value="1.0"/>
    <binomial value="100"/>
</configuration>
-->

<!-- generated on 2024-01-20 19:15:27 by Eclipse SUMO duarouter Version 1.19.0
<configuration xmlns:xsi="http://www.w3.org/2001/XMLSchema-instance" xsi:noNamespaceSchemaLocation="http://sumo.dlr.de/xsd/duarouterConfiguration.xsd">

    <input>
        <net-file value="C:\projects\traci\sumo\cbd\tinycbd.net.xml"/>
        <route-files value="tinytrips.trips.xml"/>
    </input>

    <output>
        <output-file value="tinytrips.trips.xml.tmp"/>
        <alternatives-output value="NUL"/>
        <write-trips value="true"/>
    </output>

    <time>
        <begin value="0"/>
        <end value="100.0"/>
    </time>

    <report>
        <no-warnings value="true"/>
        <ignore-errors value="true"/>
        <no-step-log value="true"/>
    </report>

</configuration>
-->

<routes xmlns:xsi="http://www.w3.org/2001/XMLSchema-instance" xsi:noNamespaceSchemaLocation="http://sumo.dlr.de/xsd/routes_file.xsd">
    <trip id="0" depart="0.00" from="-E7" to="726010044"/>
    <trip id="4" depart="2.00" from="-E0" to="E4"/>
    <trip id="5" depart="3.00" from="-E9" to="16361622#2"/>
    <trip id="7" depart="4.00" from="-E7" to="E10"/>
    <trip id="8" depart="4.00" from="-E2" to="E1"/>
    <trip id="9" depart="6.00" from="-E3" to="16361760#1"/>
    <trip id="10" depart="8.00" from="-E7" to="E5"/>
    <trip id="11" depart="10.00" from="-E8" to="-207884332#1"/>
    <trip id="12" depart="11.00" from="-E8" to="16361758#1"/>
    <trip id="14" depart="11.00" from="-E6" to="-681454143"/>
    <trip id="16" depart="17.00" from="-E4" to="E6"/>
    <trip id="17" depart="18.00" from="-E4" to="-16361903"/>
    <trip id="19" depart="20.00" from="-E4" to="13911663#1"/>
    <trip id="22" depart="21.00" from="-E11" to="13911661#1"/>
    <trip id="23" depart="23.00" from="-E1" to="E2"/>
    <trip id="24" depart="24.00" from="-E7" to="E0"/>
    <trip id="25" depart="24.00" from="-E9" to="112933971#1"/>
    <trip id="26" depart="25.00" from="-E3" to="-207884329#1"/>
    <trip id="27" depart="25.00" from="-E6" to="E2"/>
    <trip id="29" depart="26.00" from="-E10" to="16361758#1"/>
    <trip id="30" depart="26.00" from="-E2" to="13907356#1"/>
    <trip id="31" depart="26.00" from="-E5" to="E3"/>
    <trip id="32" depart="28.00" from="-E9" to="112933971#1"/>
    <trip id="33" depart="29.00" from="-E2" to="E0"/>
    <trip id="35" depart="31.00" from="-E11" to="E11"/>
    <trip id="36" depart="32.00" from="-E11" to="E1"/>
    <trip id="37" depart="33.00" from="-E6" to="E5"/>
    <trip id="38" depart="34.00" from="-E1" to="16361760#1"/>
    <trip id="41" depart="37.00" from="-E5" to="16361622#2"/>
    <trip id="44" depart="39.00" from="-E1" to="-207884332#1"/>
    <trip id="45" depart="40.00" from="-E1" to="E9"/>
    <trip id="46" depart="40.00" from="-E7" to="13907356#1"/>
    <trip id="47" depart="42.00" from="-E7" to="E3"/>
    <trip id="48" depart="42.00" from="-E9" to="E7"/>
    <trip id="51" depart="43.00" from="-E0" to="E10"/>
    <trip id="52" depart="43.00" from="-E5" to="13911663#1"/>
    <trip id="54" depart="48.00" from="-E8" to="13907356#1"/>
    <trip id="55" depart="48.00" from="-E0" to="310460930"/>
    <trip id="56" depart="49.00" from="-E6" to="13911006"/>
    <trip id="58" depart="51.00" from="-E1" to="-207884332#1"/>
    <trip id="60" depart="53.00" from="-E9" to="E2"/>
    <trip id="61" depart="54.00" from="-E10" to="-16361758#0"/>
    <trip id="62" depart="55.00" from="-E10" to="-207884329#1"/>
    <trip id="63" depart="55.00" from="-E9" to="-13911923#0"/>
    <trip id="64" depart="57.00" from="-E6" to="E8"/>
    <trip id="65" depart="58.00" from="-E11" to="E8"/>
    <trip id="67" depart="66.00" from="-E1" to="-681454143"/>
    <trip id="68" depart="66.00" from="-E5" to="726010044"/>
    <trip id="69" depart="67.00" from="-E7" to="E7"/>
    <trip id="71" depart="70.00" from="-E3" to="E2"/>
    <trip id="72" depart="70.00" from="-E9" to="13911922#2"/>
    <trip id="73" depart="70.00" from="-E3" to="E5"/>
    <trip id="74" depart="70.00" from="-E3" to="E7"/>
    <trip id="75" depart="71.00" from="-E10" to="-16361758#0"/>
    <trip id="78" depart="74.00" from="-E11" to="E2"/>
    <trip id="79" depart="74.00" from="-E7" to="E2"/>
    <trip id="80" depart="74.00" from="-E1" to="-13911925"/>
    <trip id="81" depart="75.00" from="-E7" to="E1"/>
    <trip id="82" depart="76.00" from="-E8" to="-16361758#0"/>
    <trip id="84" depart="78.00" from="-E4" to="E9"/>
    <trip id="85" depart="78.00" from="-E5" to="E9"/>
    <trip id="86" depart="79.00" from="-E0" to="16361622#2"/>
    <trip id="87" depart="80.00" from="-E6" to="16361758#1"/>
    <trip id="88" depart="81.00" from="-E11" to="E7"/>
    <trip id="89" depart="81.00" from="-E2" to="E8"/>
    <trip id="90" depart="82.00" from="-E4" to="-207884332#1"/>
    <trip id="92" depart="85.00" from="-E2" to="310460930"/>
    <trip id="93" depart="86.00" from="-E9" to="-207884332#1"/>
    <trip id="97" depart="89.00" from="-E7" to="16361760#1"/>
    <trip id="98" depart="89.00" from="-E3" to="E2"/>
    <trip id="100" depart="95.00" from="-E11" to="13911661#1"/>
    <trip id="101" depart="95.00" from="-E7" to="E4"/>
    <trip id="103" depart="96.00" from="-E5" to="-207884329#1"/>
</routes>
