<?xml version="1.0" encoding="UTF-8"?>

<!-- generated on 2023-12-11 14:51:05 by Eclipse SUMO netedit Version 1.19.0
-->

<additional xmlns:xsi="http://www.w3.org/2001/XMLSchema-instance" xsi:noNamespaceSchemaLocation="http://sumo.dlr.de/xsd/additional_file.xsd">
    <!-- Detectors -->
    <inductionLoop id="e1_0" lane="-E0_0" pos="-3.00" period="10.00" file="grid.out"/>
    <inductionLoop id="e1_1" lane="-E3_0" pos="-3.00" period="10.00" file="grid.out"/>
    <inductionLoop id="e1_10" lane="-E9_0" pos="-3.00" period="10.00" file="grid.out"/>
    <inductionLoop id="e1_11" lane="-E4_0" pos="-3.00" period="10.00" file="grid.out"/>
    <inductionLoop id="e1_12" lane="-E7_0" pos="-3.00" period="10.00" file="grid.out"/>
    <inductionLoop id="e1_13" lane="-E6_0" pos="-3.00" period="10.00" file="grid.out"/>
    <inductionLoop id="e1_14" lane="-E5_0" pos="-3.00" period="10.00" file="grid.out"/>
    <inductionLoop id="e1_15" lane="E0_0" pos="-3.00" period="10.00" file="grid.out"/>
    <inductionLoop id="e1_2" lane="-E2_0" pos="-3.00" period="10.00" file="grid.out"/>
    <inductionLoop id="e1_3" lane="-E1_0" pos="-3.00" period="10.00" file="grid.out"/>
    <inductionLoop id="e1_4" lane="E4_0" pos="-3.00" period="10.00" file="grid.out"/>
    <inductionLoop id="e1_5" lane="-E10_0" pos="-3.00" period="10.00" file="grid.out"/>
    <inductionLoop id="e1_6" lane="E11_0" pos="-3.00" period="10.00" file="grid.out"/>
    <inductionLoop id="e1_7" lane="E3_0" pos="-3.00" period="10.00" file="grid.out"/>
    <inductionLoop id="e1_8" lane="E5_0" pos="-3.00" period="10.00" file="grid.out"/>
    <inductionLoop id="e1_9" lane="-E8_0" pos="-3.00" period="10.00" file="grid.out"/>
</additional>
