<?xml version="1.0" encoding="UTF-8"?>

<!-- generated on 2023-12-11 14:51:05 by Eclipse SUMO netedit Version 1.19.0
<configuration xmlns:xsi="http://www.w3.org/2001/XMLSchema-instance" xsi:noNamespaceSchemaLocation="http://sumo.dlr.de/xsd/neteditConfiguration.xsd">

    <input>
        <sumocfg-file value="C:\Users\tplay\PycharmProjects\traci\sumo\grid\grid.sumocfg"/>
        <additional-files value="C:\Users\tplay\PycharmProjects\traci\sumo\grid\detectors.add.xml"/>
        <sumo-net-file value="C:\Users\tplay\PycharmProjects\traci\sumo\grid\grid.net.xml"/>
    </input>

    <output>
        <tls-file value="C:\Users\tplay\PycharmProjects\traci\sumo\grid\grid.tll.xml"/>
        <output-file value="C:\Users\tplay\PycharmProjects\traci\sumo\grid\grid.net.xml"/>
    </output>

    <processing>
        <geometry.min-radius.fix.railways value="false"/>
        <geometry.max-grade.fix value="false"/>
        <offset.disable-normalization value="true"/>
        <lefthand value="0"/>
    </processing>

    <junctions>
        <no-turnarounds value="true"/>
        <junctions.corner-detail value="5"/>
        <junctions.limit-turn-speed value="5.50"/>
        <rectangular-lane-cut value="0"/>
    </junctions>

    <pedestrian>
        <walkingareas value="0"/>
    </pedestrian>

</configuration>
-->

<net version="1.16" junctionCornerDetail="5" limitTurnSpeed="5.50" xmlns:xsi="http://www.w3.org/2001/XMLSchema-instance" xsi:noNamespaceSchemaLocation="http://sumo.dlr.de/xsd/net_file.xsd">

    <location netOffset="0.00,0.00" convBoundary="-100.00,0.00,200.00,300.00" origBoundary="-10000000000.00,-10000000000.00,10000000000.00,10000000000.00" projParameter="!"/>

    <edge id=":J0_0" function="internal">
        <lane id=":J0_0_0" index="0" speed="6.51" length="9.03" shape="-1.60,107.20 -1.95,104.75 -3.00,103.00 -4.75,101.95 -7.20,101.60"/>
    </edge>
    <edge id=":J0_1" function="internal">
        <lane id=":J0_1_0" index="0" speed="13.89" length="14.40" shape="-1.60,107.20 -1.60,92.80"/>
    </edge>
    <edge id=":J0_2" function="internal">
        <lane id=":J0_2_0" index="0" speed="8.00" length="4.07" shape="-1.60,107.20 -1.05,103.35 -0.96,103.20"/>
    </edge>
    <edge id=":J0_12" function="internal">
        <lane id=":J0_12_0" index="0" speed="8.00" length="10.13" shape="-0.96,103.20 0.60,100.60 3.35,98.95 7.20,98.40"/>
    </edge>
    <edge id=":J0_3" function="internal">
        <lane id=":J0_3_0" index="0" speed="6.51" length="9.03" shape="7.20,101.60 4.75,101.95 3.00,103.00 1.95,104.75 1.60,107.20"/>
    </edge>
    <edge id=":J0_4" function="internal">
        <lane id=":J0_4_0" index="0" speed="13.89" length="14.40" shape="7.20,101.60 -7.20,101.60"/>
    </edge>
    <edge id=":J0_5" function="internal">
        <lane id=":J0_5_0" index="0" speed="8.00" length="4.07" shape="7.20,101.60 3.35,101.05 3.20,100.96"/>
    </edge>
    <edge id=":J0_13" function="internal">
        <lane id=":J0_13_0" index="0" speed="8.00" length="10.13" shape="3.20,100.96 0.60,99.40 -1.05,96.65 -1.60,92.80"/>
    </edge>
    <edge id=":J0_6" function="internal">
        <lane id=":J0_6_0" index="0" speed="6.51" length="9.03" shape="1.60,92.80 1.95,95.25 3.00,97.00 4.75,98.05 7.20,98.40"/>
    </edge>
    <edge id=":J0_7" function="internal">
        <lane id=":J0_7_0" index="0" speed="13.89" length="14.40" shape="1.60,92.80 1.60,107.20"/>
    </edge>
    <edge id=":J0_8" function="internal">
        <lane id=":J0_8_0" index="0" speed="8.00" length="4.07" shape="1.60,92.80 1.05,96.65 0.96,96.80"/>
    </edge>
    <edge id=":J0_14" function="internal">
        <lane id=":J0_14_0" index="0" speed="8.00" length="10.13" shape="0.96,96.80 -0.60,99.40 -3.35,101.05 -7.20,101.60"/>
    </edge>
    <edge id=":J0_9" function="internal">
        <lane id=":J0_9_0" index="0" speed="6.51" length="9.03" shape="-7.20,98.40 -4.75,98.05 -3.00,97.00 -1.95,95.25 -1.60,92.80"/>
    </edge>
    <edge id=":J0_10" function="internal">
        <lane id=":J0_10_0" index="0" speed="13.89" length="14.40" shape="-7.20,98.40 7.20,98.40"/>
    </edge>
    <edge id=":J0_11" function="internal">
        <lane id=":J0_11_0" index="0" speed="8.00" length="4.07" shape="-7.20,98.40 -3.35,98.95 -3.20,99.04"/>
    </edge>
    <edge id=":J0_15" function="internal">
        <lane id=":J0_15_0" index="0" speed="8.00" length="10.13" shape="-3.20,99.04 -0.60,100.60 1.05,103.35 1.60,107.20"/>
    </edge>
    <edge id=":J1_0" function="internal">
        <lane id=":J1_0_0" index="0" speed="6.51" length="9.03" shape="-1.60,207.20 -1.95,204.75 -3.00,203.00 -4.75,201.95 -7.20,201.60"/>
    </edge>
    <edge id=":J1_1" function="internal">
        <lane id=":J1_1_0" index="0" speed="13.89" length="14.40" shape="-1.60,207.20 -1.60,192.80"/>
    </edge>
    <edge id=":J1_2" function="internal">
        <lane id=":J1_2_0" index="0" speed="8.00" length="4.07" shape="-1.60,207.20 -1.05,203.35 -0.96,203.20"/>
    </edge>
    <edge id=":J1_12" function="internal">
        <lane id=":J1_12_0" index="0" speed="8.00" length="10.13" shape="-0.96,203.20 0.60,200.60 3.35,198.95 7.20,198.40"/>
    </edge>
    <edge id=":J1_3" function="internal">
        <lane id=":J1_3_0" index="0" speed="6.51" length="9.03" shape="7.20,201.60 4.75,201.95 3.00,203.00 1.95,204.75 1.60,207.20"/>
    </edge>
    <edge id=":J1_4" function="internal">
        <lane id=":J1_4_0" index="0" speed="13.89" length="14.40" shape="7.20,201.60 -7.20,201.60"/>
    </edge>
    <edge id=":J1_5" function="internal">
        <lane id=":J1_5_0" index="0" speed="8.00" length="4.07" shape="7.20,201.60 3.35,201.05 3.20,200.96"/>
    </edge>
    <edge id=":J1_13" function="internal">
        <lane id=":J1_13_0" index="0" speed="8.00" length="10.13" shape="3.20,200.96 0.60,199.40 -1.05,196.65 -1.60,192.80"/>
    </edge>
    <edge id=":J1_6" function="internal">
        <lane id=":J1_6_0" index="0" speed="6.51" length="9.03" shape="1.60,192.80 1.95,195.25 3.00,197.00 4.75,198.05 7.20,198.40"/>
    </edge>
    <edge id=":J1_7" function="internal">
        <lane id=":J1_7_0" index="0" speed="13.89" length="14.40" shape="1.60,192.80 1.60,207.20"/>
    </edge>
    <edge id=":J1_8" function="internal">
        <lane id=":J1_8_0" index="0" speed="8.00" length="4.07" shape="1.60,192.80 1.05,196.65 0.96,196.80"/>
    </edge>
    <edge id=":J1_14" function="internal">
        <lane id=":J1_14_0" index="0" speed="8.00" length="10.13" shape="0.96,196.80 -0.60,199.40 -3.35,201.05 -7.20,201.60"/>
    </edge>
    <edge id=":J1_9" function="internal">
        <lane id=":J1_9_0" index="0" speed="6.51" length="9.03" shape="-7.20,198.40 -4.75,198.05 -3.00,197.00 -1.95,195.25 -1.60,192.80"/>
    </edge>
    <edge id=":J1_10" function="internal">
        <lane id=":J1_10_0" index="0" speed="13.89" length="14.40" shape="-7.20,198.40 7.20,198.40"/>
    </edge>
    <edge id=":J1_11" function="internal">
        <lane id=":J1_11_0" index="0" speed="8.00" length="4.07" shape="-7.20,198.40 -3.35,198.95 -3.20,199.04"/>
    </edge>
    <edge id=":J1_15" function="internal">
        <lane id=":J1_15_0" index="0" speed="8.00" length="10.13" shape="-3.20,199.04 -0.60,200.60 1.05,203.35 1.60,207.20"/>
    </edge>
    <edge id=":J4_0" function="internal">
        <lane id=":J4_0_0" index="0" speed="6.51" length="9.03" shape="98.40,107.20 98.05,104.75 97.00,103.00 95.25,101.95 92.80,101.60"/>
    </edge>
    <edge id=":J4_1" function="internal">
        <lane id=":J4_1_0" index="0" speed="13.89" length="14.40" shape="98.40,107.20 98.40,92.80"/>
    </edge>
    <edge id=":J4_2" function="internal">
        <lane id=":J4_2_0" index="0" speed="8.00" length="4.07" shape="98.40,107.20 98.95,103.35 99.04,103.20"/>
    </edge>
    <edge id=":J4_12" function="internal">
        <lane id=":J4_12_0" index="0" speed="8.00" length="10.13" shape="99.04,103.20 100.60,100.60 103.35,98.95 107.20,98.40"/>
    </edge>
    <edge id=":J4_3" function="internal">
        <lane id=":J4_3_0" index="0" speed="6.51" length="9.03" shape="107.20,101.60 104.75,101.95 103.00,103.00 101.95,104.75 101.60,107.20"/>
    </edge>
    <edge id=":J4_4" function="internal">
        <lane id=":J4_4_0" index="0" speed="13.89" length="14.40" shape="107.20,101.60 92.80,101.60"/>
    </edge>
    <edge id=":J4_5" function="internal">
        <lane id=":J4_5_0" index="0" speed="8.00" length="4.07" shape="107.20,101.60 103.35,101.05 103.20,100.96"/>
    </edge>
    <edge id=":J4_13" function="internal">
        <lane id=":J4_13_0" index="0" speed="8.00" length="10.13" shape="103.20,100.96 100.60,99.40 98.95,96.65 98.40,92.80"/>
    </edge>
    <edge id=":J4_6" function="internal">
        <lane id=":J4_6_0" index="0" speed="6.51" length="9.03" shape="101.60,92.80 101.95,95.25 103.00,97.00 104.75,98.05 107.20,98.40"/>
    </edge>
    <edge id=":J4_7" function="internal">
        <lane id=":J4_7_0" index="0" speed="13.89" length="14.40" shape="101.60,92.80 101.60,107.20"/>
    </edge>
    <edge id=":J4_8" function="internal">
        <lane id=":J4_8_0" index="0" speed="8.00" length="4.07" shape="101.60,92.80 101.05,96.65 100.96,96.80"/>
    </edge>
    <edge id=":J4_14" function="internal">
        <lane id=":J4_14_0" index="0" speed="8.00" length="10.13" shape="100.96,96.80 99.40,99.40 96.65,101.05 92.80,101.60"/>
    </edge>
    <edge id=":J4_9" function="internal">
        <lane id=":J4_9_0" index="0" speed="6.51" length="9.03" shape="92.80,98.40 95.25,98.05 97.00,97.00 98.05,95.25 98.40,92.80"/>
    </edge>
    <edge id=":J4_10" function="internal">
        <lane id=":J4_10_0" index="0" speed="13.89" length="14.40" shape="92.80,98.40 107.20,98.40"/>
    </edge>
    <edge id=":J4_11" function="internal">
        <lane id=":J4_11_0" index="0" speed="8.00" length="4.07" shape="92.80,98.40 96.65,98.95 96.80,99.04"/>
    </edge>
    <edge id=":J4_15" function="internal">
        <lane id=":J4_15_0" index="0" speed="8.00" length="10.13" shape="96.80,99.04 99.40,100.60 101.05,103.35 101.60,107.20"/>
    </edge>
    <edge id=":J5_0" function="internal">
        <lane id=":J5_0_0" index="0" speed="6.51" length="9.03" shape="98.40,207.20 98.05,204.75 97.00,203.00 95.25,201.95 92.80,201.60"/>
    </edge>
    <edge id=":J5_1" function="internal">
        <lane id=":J5_1_0" index="0" speed="13.89" length="14.40" shape="98.40,207.20 98.40,192.80"/>
    </edge>
    <edge id=":J5_2" function="internal">
        <lane id=":J5_2_0" index="0" speed="8.00" length="4.07" shape="98.40,207.20 98.95,203.35 99.04,203.20"/>
    </edge>
    <edge id=":J5_12" function="internal">
        <lane id=":J5_12_0" index="0" speed="8.00" length="10.13" shape="99.04,203.20 100.60,200.60 103.35,198.95 107.20,198.40"/>
    </edge>
    <edge id=":J5_3" function="internal">
        <lane id=":J5_3_0" index="0" speed="6.51" length="9.03" shape="107.20,201.60 104.75,201.95 103.00,203.00 101.95,204.75 101.60,207.20"/>
    </edge>
    <edge id=":J5_4" function="internal">
        <lane id=":J5_4_0" index="0" speed="13.89" length="14.40" shape="107.20,201.60 92.80,201.60"/>
    </edge>
    <edge id=":J5_5" function="internal">
        <lane id=":J5_5_0" index="0" speed="8.00" length="4.07" shape="107.20,201.60 103.35,201.05 103.20,200.96"/>
    </edge>
    <edge id=":J5_13" function="internal">
        <lane id=":J5_13_0" index="0" speed="8.00" length="10.13" shape="103.20,200.96 100.60,199.40 98.95,196.65 98.40,192.80"/>
    </edge>
    <edge id=":J5_6" function="internal">
        <lane id=":J5_6_0" index="0" speed="6.51" length="9.03" shape="101.60,192.80 101.95,195.25 103.00,197.00 104.75,198.05 107.20,198.40"/>
    </edge>
    <edge id=":J5_7" function="internal">
        <lane id=":J5_7_0" index="0" speed="13.89" length="14.40" shape="101.60,192.80 101.60,207.20"/>
    </edge>
    <edge id=":J5_8" function="internal">
        <lane id=":J5_8_0" index="0" speed="8.00" length="4.07" shape="101.60,192.80 101.05,196.65 100.96,196.80"/>
    </edge>
    <edge id=":J5_14" function="internal">
        <lane id=":J5_14_0" index="0" speed="8.00" length="10.13" shape="100.96,196.80 99.40,199.40 96.65,201.05 92.80,201.60"/>
    </edge>
    <edge id=":J5_9" function="internal">
        <lane id=":J5_9_0" index="0" speed="6.51" length="9.03" shape="92.80,198.40 95.25,198.05 97.00,197.00 98.05,195.25 98.40,192.80"/>
    </edge>
    <edge id=":J5_10" function="internal">
        <lane id=":J5_10_0" index="0" speed="13.89" length="14.40" shape="92.80,198.40 107.20,198.40"/>
    </edge>
    <edge id=":J5_11" function="internal">
        <lane id=":J5_11_0" index="0" speed="8.00" length="4.07" shape="92.80,198.40 96.65,198.95 96.80,199.04"/>
    </edge>
    <edge id=":J5_15" function="internal">
        <lane id=":J5_15_0" index="0" speed="8.00" length="10.13" shape="96.80,199.04 99.40,200.60 101.05,203.35 101.60,207.20"/>
    </edge>

    <edge id="-E0" from="J1" to="J0" priority="-1">
        <lane id="-E0_0" index="0" speed="13.89" length="85.60" shape="-1.60,192.80 -1.60,107.20"/>
    </edge>
    <edge id="-E1" from="J2" to="J0" priority="-1">
        <lane id="-E1_0" index="0" speed="13.89" length="92.80" shape="-100.00,98.40 -7.20,98.40"/>
    </edge>
    <edge id="-E10" from="J10" to="J4" priority="-1">
        <lane id="-E10_0" index="0" speed="13.89" length="92.80" shape="200.00,101.60 107.20,101.60"/>
    </edge>
    <edge id="-E11" from="J4" to="J11" priority="-1">
        <lane id="-E11_0" index="0" speed="13.89" length="92.80" shape="98.40,92.80 98.40,0.00"/>
    </edge>
    <edge id="-E2" from="J3" to="J0" priority="-1">
        <lane id="-E2_0" index="0" speed="13.89" length="92.80" shape="1.60,0.00 1.60,92.80"/>
    </edge>
    <edge id="-E3" from="J4" to="J0" priority="-1">
        <lane id="-E3_0" index="0" speed="13.89" length="85.60" shape="92.80,101.60 7.20,101.60"/>
    </edge>
    <edge id="-E4" from="J4" to="J5" priority="-1">
        <lane id="-E4_0" index="0" speed="13.89" length="85.60" shape="101.60,107.20 101.60,192.80"/>
    </edge>
    <edge id="-E5" from="J5" to="J1" priority="-1">
        <lane id="-E5_0" index="0" speed="13.89" length="85.60" shape="92.80,201.60 7.20,201.60"/>
    </edge>
    <edge id="-E6" from="J6" to="J1" priority="-1">
        <lane id="-E6_0" index="0" speed="13.89" length="92.80" shape="-1.60,300.00 -1.60,207.20"/>
    </edge>
    <edge id="-E7" from="J7" to="J1" priority="-1">
        <lane id="-E7_0" index="0" speed="13.89" length="92.80" shape="-100.00,198.40 -7.20,198.40"/>
    </edge>
    <edge id="-E8" from="J8" to="J5" priority="-1">
        <lane id="-E8_0" index="0" speed="13.89" length="92.80" shape="98.40,300.00 98.40,207.20"/>
    </edge>
    <edge id="-E9" from="J9" to="J5" priority="-1">
        <lane id="-E9_0" index="0" speed="13.89" length="92.80" shape="200.00,201.60 107.20,201.60"/>
    </edge>
    <edge id="E0" from="J0" to="J1" priority="-1">
        <lane id="E0_0" index="0" speed="13.89" length="85.60" shape="1.60,107.20 1.60,192.80"/>
    </edge>
    <edge id="E1" from="J0" to="J2" priority="-1">
        <lane id="E1_0" index="0" speed="13.89" length="92.80" shape="-7.20,101.60 -100.00,101.60"/>
    </edge>
    <edge id="E10" from="J4" to="J10" priority="-1">
        <lane id="E10_0" index="0" speed="13.89" length="92.80" shape="107.20,98.40 200.00,98.40"/>
    </edge>
    <edge id="E11" from="J11" to="J4" priority="-1">
        <lane id="E11_0" index="0" speed="13.89" length="92.80" shape="101.60,0.00 101.60,92.80"/>
    </edge>
    <edge id="E2" from="J0" to="J3" priority="-1">
        <lane id="E2_0" index="0" speed="13.89" length="92.80" shape="-1.60,92.80 -1.60,0.00"/>
    </edge>
    <edge id="E3" from="J0" to="J4" priority="-1">
        <lane id="E3_0" index="0" speed="13.89" length="85.60" shape="7.20,98.40 92.80,98.40"/>
    </edge>
    <edge id="E4" from="J5" to="J4" priority="-1">
        <lane id="E4_0" index="0" speed="13.89" length="85.60" shape="98.40,192.80 98.40,107.20"/>
    </edge>
    <edge id="E5" from="J1" to="J5" priority="-1">
        <lane id="E5_0" index="0" speed="13.89" length="85.60" shape="7.20,198.40 92.80,198.40"/>
    </edge>
    <edge id="E6" from="J1" to="J6" priority="-1">
        <lane id="E6_0" index="0" speed="13.89" length="92.80" shape="1.60,207.20 1.60,300.00"/>
    </edge>
    <edge id="E7" from="J1" to="J7" priority="-1">
        <lane id="E7_0" index="0" speed="13.89" length="92.80" shape="-7.20,201.60 -100.00,201.60"/>
    </edge>
    <edge id="E8" from="J5" to="J8" priority="-1">
        <lane id="E8_0" index="0" speed="13.89" length="92.80" shape="101.60,207.20 101.60,300.00"/>
    </edge>
    <edge id="E9" from="J5" to="J9" priority="-1">
        <lane id="E9_0" index="0" speed="13.89" length="92.80" shape="107.20,198.40 200.00,198.40"/>
    </edge>

    <tlLogic id="J0" type="static" programID="0" offset="0">
        <phase duration="3"  state="rrryyyrrryyy"/>
        <phase duration="42" state="GGgrrrGGgrrr"/>
        <phase duration="3"  state="yyyrrryyyrrr"/>
        <phase duration="42" state="rrrGGgrrrGGg"/>
    </tlLogic>
    <tlLogic id="J1" type="static" programID="0" offset="0">
        <phase duration="3"  state="rrryyyrrryyy"/>
        <phase duration="42" state="GGgrrrGGgrrr"/>
        <phase duration="3"  state="yyyrrryyyrrr"/>
        <phase duration="42" state="rrrGGgrrrGGg"/>
    </tlLogic>
    <tlLogic id="J4" type="static" programID="0" offset="0">
        <phase duration="3"  state="rrryyyrrryyy"/>
        <phase duration="42" state="GGgrrrGGgrrr"/>
        <phase duration="3"  state="yyyrrryyyrrr"/>
        <phase duration="42" state="rrrGGgrrrGGg"/>
    </tlLogic>
    <tlLogic id="J5" type="static" programID="0" offset="0">
        <phase duration="3"  state="rrryyyrrryyy"/>
        <phase duration="42" state="GGgrrrGGgrrr"/>
        <phase duration="3"  state="yyyrrryyyrrr"/>
        <phase duration="42" state="rrrGGgrrrGGg"/>
    </tlLogic>

    <junction id="J0" type="traffic_light" x="0.00" y="100.00" incLanes="-E0_0 -E3_0 -E2_0 -E1_0" intLanes=":J0_0_0 :J0_1_0 :J0_12_0 :J0_3_0 :J0_4_0 :J0_13_0 :J0_6_0 :J0_7_0 :J0_14_0 :J0_9_0 :J0_10_0 :J0_15_0" shape="-3.20,107.20 3.20,107.20 3.64,104.98 4.20,104.20 4.98,103.64 5.98,103.31 7.20,103.20 7.20,96.80 4.98,96.36 4.20,95.80 3.64,95.02 3.31,94.02 3.20,92.80 -3.20,92.80 -3.64,95.02 -4.20,95.80 -4.98,96.36 -5.98,96.69 -7.20,96.80 -7.20,103.20 -4.98,103.64 -4.20,104.20 -3.64,104.98 -3.31,105.98">
        <request index="0"  response="000000000000" foes="000100010000" cont="0"/>
        <request index="1"  response="100000100000" foes="111100110000" cont="0"/>
        <request index="2"  response="100111100000" foes="110111110000" cont="1"/>
        <request index="3"  response="000010000000" foes="100010000000" cont="0"/>
        <request index="4"  response="000110000111" foes="100110000111" cont="0"/>
        <request index="5"  response="011110000110" foes="111110000110" cont="1"/>
        <request index="6"  response="000000000000" foes="010000000100" cont="0"/>
        <request index="7"  response="100000100000" foes="110000111100" cont="0"/>
        <request index="8"  response="100000100011" foes="110000110111" cont="1"/>
        <request index="9"  response="000000000010" foes="000000100010" cont="0"/>
        <request index="10" response="000111000110" foes="000111100110" cont="0"/>
        <request index="11" response="000110111110" foes="000110111110" cont="1"/>
    </junction>
    <junction id="J1" type="traffic_light" x="0.00" y="200.00" incLanes="-E6_0 -E5_0 E0_0 -E7_0" intLanes=":J1_0_0 :J1_1_0 :J1_12_0 :J1_3_0 :J1_4_0 :J1_13_0 :J1_6_0 :J1_7_0 :J1_14_0 :J1_9_0 :J1_10_0 :J1_15_0" shape="-3.20,207.20 3.20,207.20 3.64,204.98 4.20,204.20 4.98,203.64 5.98,203.31 7.20,203.20 7.20,196.80 4.98,196.36 4.20,195.80 3.64,195.02 3.31,194.02 3.20,192.80 -3.20,192.80 -3.64,195.02 -4.20,195.80 -4.98,196.36 -5.98,196.69 -7.20,196.80 -7.20,203.20 -4.98,203.64 -4.20,204.20 -3.64,204.98 -3.31,205.98">
        <request index="0"  response="000000000000" foes="000100010000" cont="0"/>
        <request index="1"  response="100000100000" foes="111100110000" cont="0"/>
        <request index="2"  response="100111100000" foes="110111110000" cont="1"/>
        <request index="3"  response="000010000000" foes="100010000000" cont="0"/>
        <request index="4"  response="000110000111" foes="100110000111" cont="0"/>
        <request index="5"  response="111110000110" foes="111110000110" cont="1"/>
        <request index="6"  response="000000000000" foes="010000000100" cont="0"/>
        <request index="7"  response="100000100000" foes="110000111100" cont="0"/>
        <request index="8"  response="100000100011" foes="110000110111" cont="1"/>
        <request index="9"  response="000000000010" foes="000000100010" cont="0"/>
        <request index="10" response="000111000110" foes="000111100110" cont="0"/>
        <request index="11" response="000110011110" foes="000110111110" cont="1"/>
    </junction>
    <junction id="J10" type="dead_end" x="200.00" y="100.00" incLanes="E10_0" intLanes="" shape="200.00,100.00 200.00,96.80 200.00,100.00"/>
    <junction id="J11" type="dead_end" x="100.00" y="0.00" incLanes="-E11_0" intLanes="" shape="100.00,0.00 96.80,0.00 100.00,0.00"/>
    <junction id="J2" type="dead_end" x="-100.00" y="100.00" incLanes="E1_0" intLanes="" shape="-100.00,100.00 -100.00,103.20 -100.00,100.00"/>
    <junction id="J3" type="dead_end" x="0.00" y="0.00" incLanes="E2_0" intLanes="" shape="0.00,0.00 -3.20,0.00 0.00,0.00"/>
    <junction id="J4" type="traffic_light" x="100.00" y="100.00" incLanes="E4_0 -E10_0 E11_0 E3_0" intLanes=":J4_0_0 :J4_1_0 :J4_12_0 :J4_3_0 :J4_4_0 :J4_13_0 :J4_6_0 :J4_7_0 :J4_14_0 :J4_9_0 :J4_10_0 :J4_15_0" shape="96.80,107.20 103.20,107.20 103.64,104.98 104.20,104.20 104.98,103.64 105.98,103.31 107.20,103.20 107.20,96.80 104.98,96.36 104.20,95.80 103.64,95.02 103.31,94.02 103.20,92.80 96.80,92.80 96.36,95.02 95.80,95.80 95.02,96.36 94.02,96.69 92.80,96.80 92.80,103.20 95.02,103.64 95.80,104.20 96.36,104.98 96.69,105.98">
        <request index="0"  response="000000000000" foes="000100010000" cont="0"/>
        <request index="1"  response="100000100000" foes="111100110000" cont="0"/>
        <request index="2"  response="100011100000" foes="110111110000" cont="1"/>
        <request index="3"  response="000010000000" foes="100010000000" cont="0"/>
        <request index="4"  response="000110000111" foes="100110000111" cont="0"/>
        <request index="5"  response="111110000110" foes="111110000110" cont="1"/>
        <request index="6"  response="000000000000" foes="010000000100" cont="0"/>
        <request index="7"  response="100000100000" foes="110000111100" cont="0"/>
        <request index="8"  response="100000100111" foes="110000110111" cont="1"/>
        <request index="9"  response="000000000010" foes="000000100010" cont="0"/>
        <request index="10" response="000111000110" foes="000111100110" cont="0"/>
        <request index="11" response="000110011110" foes="000110111110" cont="1"/>
    </junction>
    <junction id="J5" type="traffic_light" x="100.00" y="200.00" incLanes="-E8_0 -E9_0 -E4_0 E5_0" intLanes=":J5_0_0 :J5_1_0 :J5_12_0 :J5_3_0 :J5_4_0 :J5_13_0 :J5_6_0 :J5_7_0 :J5_14_0 :J5_9_0 :J5_10_0 :J5_15_0" shape="96.80,207.20 103.20,207.20 103.64,204.98 104.20,204.20 104.98,203.64 105.98,203.31 107.20,203.20 107.20,196.80 104.98,196.36 104.20,195.80 103.64,195.02 103.31,194.02 103.20,192.80 96.80,192.80 96.36,195.02 95.80,195.80 95.02,196.36 94.02,196.69 92.80,196.80 92.80,203.20 95.02,203.64 95.80,204.20 96.36,204.98 96.69,205.98">
        <request index="0"  response="000000000000" foes="000100010000" cont="0"/>
        <request index="1"  response="100000100000" foes="111100110000" cont="0"/>
        <request index="2"  response="100011100000" foes="110111110000" cont="1"/>
        <request index="3"  response="000010000000" foes="100010000000" cont="0"/>
        <request index="4"  response="000110000111" foes="100110000111" cont="0"/>
        <request index="5"  response="111110000110" foes="111110000110" cont="1"/>
        <request index="6"  response="000000000000" foes="010000000100" cont="0"/>
        <request index="7"  response="100000100000" foes="110000111100" cont="0"/>
        <request index="8"  response="100000100111" foes="110000110111" cont="1"/>
        <request index="9"  response="000000000010" foes="000000100010" cont="0"/>
        <request index="10" response="000111000110" foes="000111100110" cont="0"/>
        <request index="11" response="000110011110" foes="000110111110" cont="1"/>
    </junction>
    <junction id="J6" type="dead_end" x="0.00" y="300.00" incLanes="E6_0" intLanes="" shape="0.00,300.00 3.20,300.00 0.00,300.00"/>
    <junction id="J7" type="dead_end" x="-100.00" y="200.00" incLanes="E7_0" intLanes="" shape="-100.00,200.00 -100.00,203.20 -100.00,200.00"/>
    <junction id="J8" type="dead_end" x="100.00" y="300.00" incLanes="E8_0" intLanes="" shape="100.00,300.00 103.20,300.00 100.00,300.00"/>
    <junction id="J9" type="dead_end" x="200.00" y="200.00" incLanes="E9_0" intLanes="" shape="200.00,200.00 200.00,196.80 200.00,200.00"/>

    <junction id=":J0_12_0" type="internal" x="-0.96" y="103.20" incLanes=":J0_2_0 -E2_0" intLanes=":J0_4_0 :J0_5_0 :J0_6_0 :J0_7_0 :J0_10_0 :J0_11_0"/>
    <junction id=":J0_13_0" type="internal" x="3.20" y="100.96" incLanes=":J0_5_0 -E1_0" intLanes=":J0_1_0 :J0_2_0 :J0_7_0 :J0_8_0 :J0_9_0 :J0_10_0"/>
    <junction id=":J0_14_0" type="internal" x="0.96" y="96.80" incLanes=":J0_8_0 -E0_0" intLanes=":J0_0_0 :J0_1_0 :J0_4_0 :J0_5_0 :J0_10_0 :J0_11_0"/>
    <junction id=":J0_15_0" type="internal" x="-3.20" y="99.04" incLanes=":J0_11_0 -E3_0" intLanes=":J0_1_0 :J0_2_0 :J0_3_0 :J0_4_0 :J0_7_0 :J0_8_0"/>
    <junction id=":J1_12_0" type="internal" x="-0.96" y="203.20" incLanes=":J1_2_0 E0_0" intLanes=":J1_4_0 :J1_5_0 :J1_6_0 :J1_7_0 :J1_10_0 :J1_11_0"/>
    <junction id=":J1_13_0" type="internal" x="3.20" y="200.96" incLanes=":J1_5_0 -E7_0" intLanes=":J1_1_0 :J1_2_0 :J1_7_0 :J1_8_0 :J1_9_0 :J1_10_0"/>
    <junction id=":J1_14_0" type="internal" x="0.96" y="196.80" incLanes=":J1_8_0 -E6_0" intLanes=":J1_0_0 :J1_1_0 :J1_4_0 :J1_5_0 :J1_10_0 :J1_11_0"/>
    <junction id=":J1_15_0" type="internal" x="-3.20" y="199.04" incLanes=":J1_11_0 -E5_0" intLanes=":J1_1_0 :J1_2_0 :J1_3_0 :J1_4_0 :J1_7_0 :J1_8_0"/>
    <junction id=":J4_12_0" type="internal" x="99.04" y="103.20" incLanes=":J4_2_0 E11_0" intLanes=":J4_4_0 :J4_5_0 :J4_6_0 :J4_7_0 :J4_10_0 :J4_11_0"/>
    <junction id=":J4_13_0" type="internal" x="103.20" y="100.96" incLanes=":J4_5_0 E3_0" intLanes=":J4_1_0 :J4_2_0 :J4_7_0 :J4_8_0 :J4_9_0 :J4_10_0"/>
    <junction id=":J4_14_0" type="internal" x="100.96" y="96.80" incLanes=":J4_8_0 E4_0" intLanes=":J4_0_0 :J4_1_0 :J4_4_0 :J4_5_0 :J4_10_0 :J4_11_0"/>
    <junction id=":J4_15_0" type="internal" x="96.80" y="99.04" incLanes=":J4_11_0 -E10_0" intLanes=":J4_1_0 :J4_2_0 :J4_3_0 :J4_4_0 :J4_7_0 :J4_8_0"/>
    <junction id=":J5_12_0" type="internal" x="99.04" y="203.20" incLanes=":J5_2_0 -E4_0" intLanes=":J5_4_0 :J5_5_0 :J5_6_0 :J5_7_0 :J5_10_0 :J5_11_0"/>
    <junction id=":J5_13_0" type="internal" x="103.20" y="200.96" incLanes=":J5_5_0 E5_0" intLanes=":J5_1_0 :J5_2_0 :J5_7_0 :J5_8_0 :J5_9_0 :J5_10_0"/>
    <junction id=":J5_14_0" type="internal" x="100.96" y="196.80" incLanes=":J5_8_0 -E8_0" intLanes=":J5_0_0 :J5_1_0 :J5_4_0 :J5_5_0 :J5_10_0 :J5_11_0"/>
    <junction id=":J5_15_0" type="internal" x="96.80" y="199.04" incLanes=":J5_11_0 -E9_0" intLanes=":J5_1_0 :J5_2_0 :J5_3_0 :J5_4_0 :J5_7_0 :J5_8_0"/>

    <connection from="-E0" to="E1" fromLane="0" toLane="0" via=":J0_0_0" tl="J0" linkIndex="0" dir="r" state="O"/>
    <connection from="-E0" to="E2" fromLane="0" toLane="0" via=":J0_1_0" tl="J0" linkIndex="1" dir="s" state="O"/>
    <connection from="-E0" to="E3" fromLane="0" toLane="0" via=":J0_2_0" tl="J0" linkIndex="2" dir="l" state="o"/>
    <connection from="-E1" to="E2" fromLane="0" toLane="0" via=":J0_9_0" tl="J0" linkIndex="9" dir="r" state="o"/>
    <connection from="-E1" to="E3" fromLane="0" toLane="0" via=":J0_10_0" tl="J0" linkIndex="10" dir="s" state="o"/>
    <connection from="-E1" to="E0" fromLane="0" toLane="0" via=":J0_11_0" tl="J0" linkIndex="11" dir="l" state="o"/>
    <connection from="-E10" to="-E4" fromLane="0" toLane="0" via=":J4_3_0" tl="J4" linkIndex="3" dir="r" state="o"/>
    <connection from="-E10" to="-E3" fromLane="0" toLane="0" via=":J4_4_0" tl="J4" linkIndex="4" dir="s" state="o"/>
    <connection from="-E10" to="-E11" fromLane="0" toLane="0" via=":J4_5_0" tl="J4" linkIndex="5" dir="l" state="o"/>
    <connection from="-E2" to="E3" fromLane="0" toLane="0" via=":J0_6_0" tl="J0" linkIndex="6" dir="r" state="O"/>
    <connection from="-E2" to="E0" fromLane="0" toLane="0" via=":J0_7_0" tl="J0" linkIndex="7" dir="s" state="O"/>
    <connection from="-E2" to="E1" fromLane="0" toLane="0" via=":J0_8_0" tl="J0" linkIndex="8" dir="l" state="o"/>
    <connection from="-E3" to="E0" fromLane="0" toLane="0" via=":J0_3_0" tl="J0" linkIndex="3" dir="r" state="o"/>
    <connection from="-E3" to="E1" fromLane="0" toLane="0" via=":J0_4_0" tl="J0" linkIndex="4" dir="s" state="o"/>
    <connection from="-E3" to="E2" fromLane="0" toLane="0" via=":J0_5_0" tl="J0" linkIndex="5" dir="l" state="o"/>
    <connection from="-E4" to="E9" fromLane="0" toLane="0" via=":J5_6_0" tl="J5" linkIndex="6" dir="r" state="O"/>
    <connection from="-E4" to="E8" fromLane="0" toLane="0" via=":J5_7_0" tl="J5" linkIndex="7" dir="s" state="O"/>
    <connection from="-E4" to="-E5" fromLane="0" toLane="0" via=":J5_8_0" tl="J5" linkIndex="8" dir="l" state="o"/>
    <connection from="-E5" to="E6" fromLane="0" toLane="0" via=":J1_3_0" tl="J1" linkIndex="3" dir="r" state="o"/>
    <connection from="-E5" to="E7" fromLane="0" toLane="0" via=":J1_4_0" tl="J1" linkIndex="4" dir="s" state="o"/>
    <connection from="-E5" to="-E0" fromLane="0" toLane="0" via=":J1_5_0" tl="J1" linkIndex="5" dir="l" state="o"/>