<?xml version="1.0" encoding="UTF-8"?>

<!-- generated on 2023-12-11 14:51:05 by Eclipse SUMO sumo Version 1.19.0
-->

<configuration xmlns:xsi="http://www.w3.org/2001/XMLSchema-instance" xsi:noNamespaceSchemaLocation="http://sumo.dlr.de/xsd/sumoConfiguration.xsd">

    <input>
        <net-file value="grid.net.xml"/>
	<route-files value="grid.rou.xml"/>
        <additional-files value="grid.add.xml"/>
    </input>

</configuration>
