<?xml version="1.0" encoding="UTF-8"?>

<!-- generated on 2023-12-09 18:38:03 by Eclipse SUMO netedit Version 1.19.0
-->

<routes xmlns:xsi="http://www.w3.org/2001/XMLSchema-instance" xsi:noNamespaceSchemaLocation="http://sumo.dlr.de/xsd/routes_file.xsd">
    <!-- Routes -->
    <route id="r_0" edges="-E6 -E0 E2"/>
    <route id="r_1" edges="-E2 E0 E6"/>
    <route id="r_2" edges="-E8 E4 -E11"/>
    <route id="r_3" edges="E11 -E4 E8"/>
    <route id="r_4" edges="-E7 E5 E9"/>
    <route id="r_5" edges="-E9 -E5 E7"/>
    <route id="r_6" edges="-E1 E3 E10"/>
    <route id="r_7" edges="-E10 -E3 E1"/>
    <!-- Vehicles, persons and containers (sorted by depart) -->
    <flow id="f_0" begin="0.00" route="r_0" end="100.00" probability="0.1"/>
    <flow id="f_1" begin="0.00" route="r_1" end="100.00" probability="0.1"/>
    <flow id="f_2" begin="0.00" route="r_2" end="100.00" probability="0.1"/>
    <flow id="f_3" begin="0.00" route="r_3" end="100.00" probability="0.1"/>
    <flow id="f_4" begin="0.00" route="r_5" end="100.00" probability="0.1"/>
    <flow id="f_5" begin="0.00" route="r_4" end="100.00" probability="0.1"/>
    <flow id="f_6" begin="0.00" route="r_7" end="100.00" probability="0.1"/>
    <flow id="f_7" begin="0.00" route="r_6" end="100.00" probability="0.1"/>
</routes>
